version 2
run General-2-20180202-18:51:46-1544
attr configname General
attr datetime 20180202-18:51:46
attr experiment General
attr inifile carrefour.ini
attr iterationvars $0=6
attr iterationvarsf 6-
attr measurement $0=6
attr network Carrefour
attr processid 1544
attr repetition 0
attr replication #0
attr resultdir results
attr runnumber 2
attr seedset 2
param **.lambda 6
param **.numeroCasse 10
param **.mu 30
param **.tipoSimulazione 0
param **.delay 0
param **.ServiceType 0

vector 0 Carrefour.coda 1_Lambda:vector ETV
attr source Interarrivals
attr title "1/lambda, vector"
vector 1 Carrefour.coda E_Nq:vector ETV
attr source QueueLenght
attr title "E[Nq], vector"
vector 2 Carrefour.coda E_W:vector ETV
attr source Queuing
attr title "E[W], vector"
vector 3 Carrefour.decisore E_R:vector ETV
attr source TotalTime
attr title "E[R], vector"
vector 4 Carrefour.decisore ActiveTillStat:vector ETV
attr source ActiveTill
attr title "Active Till, vector"
0	1	7	7
0	3	7.518490989953	0.518490989953
0	5	12.781317420518	5.262826430565
0	7	13.043534879001	0.262217458483
0	10	17.331041748145	4.287506869144
0	13	18.187333628014	0.856291879869
0	15	30.851170619824	12.66383699181
0	18	33.256961790239	2.405791170415
0	20	38.316126238533	5.059164448294
0	22	39.189829705272	0.873703466739
0	24	41.603210926723	2.413381221451
0	27	43.037702474295	1.434491547572
0	29	47.538812215967	4.501109741672
0	32	50.705374940876	3.166562724909
0	34	50.725189049857	0.019814108981
0	36	53.227541645504	2.502352595647
0	45	69.561669730155	16.334128084651
0	47	71.35006624656	1.788396516405
0	49	72.894140098303	1.544073851743
0	51	79.282862793308	6.388722695005
0	54	81.26509347452	1.982230681212
0	57	84.239134879087	2.974041404567
0	60	84.710341205873	0.471206326786
0	62	85.22517705286	0.514835846987
0	67	97.469925239876	12.244748187016
0	73	108.341816459603	10.871891219727
0	77	127.445984309964	19.104167850361
0	79	129.353522773234	1.90753846327
0	82	131.16319022577	1.809667452536
0	88	141.380699077258	10.217508851488
0	90	146.006601136768	4.62590205951
0	93	157.709802545876	11.703201409108
0	96	171.545838959127	13.836036413251
0	98	172.495229614495	0.949390655368
0	100	177.850014010979	5.354784396484
0	103	181.808020258127	3.958006247148
0	105	182.379304953032	0.571284694905
0	108	188.733904523752	6.35459957072
0	113	198.338764072306	9.604859548554
0	116	201.490759619824	3.151995547518
0	118	202.627809469512	1.137049849688
0	121	205.678302715062	3.05049324555
0	123	205.683179431062	0.004876716
0	125	210.874605930533	5.191426499471
0	127	211.717512218382	0.842906287849
0	129	212.27883792404	0.561325705658
0	134	219.559840259931	7.281002335891
0	136	219.742444405108	0.182604145177
0	139	220.076732217172	0.334287812064
0	141	224.397609593456	4.320877376284
0	145	227.560867199513	3.163257606057
0	148	231.410826337326	3.849959137813
0	151	232.665449338289	1.254623000963
0	153	233.907643317657	1.242193979368
0	157	241.996141714443	8.088498396786
0	162	255.99928481022	14.003143095777
0	164	256.154870427504	0.155585617284
0	169	264.243886258024	8.08901583052
0	174	279.210188275463	14.966302017439
0	177	281.356947847169	2.146759571706
0	180	283.421306777188	2.064358930019
0	183	285.123994505948	1.70268772876
0	185	290.488967256764	5.364972750816
0	190	304.796934126284	14.30796686952
0	194	320.716273470632	15.919339344348
0	196	330.045513716483	9.329240245851
0	199	337.085093294505	7.039579578022
0	201	343.107765413685	6.02267211918
0	203	344.998234567665	1.89046915398
0	207	353.759210144674	8.760975577009
0	209	355.082313492327	1.323103347653
0	213	364.310878320105	9.228564827778
0	215	371.511026412987	7.200148092882
0	217	371.607347318261	0.096320905274
0	219	372.31924735271	0.711900034449
0	221	374.087866438249	1.768619085539
0	223	377.681111116317	3.593244678068
0	226	386.717160552122	9.036049435805
0	228	387.723570070186	1.006409518064
0	231	388.27663334384	0.553063273654
0	234	390.661055872223	2.384422528383
0	237	392.533602125869	1.872546253646
0	239	395.589217981508	3.055615855639
0	246	408.454909039237	12.865691057729
0	248	409.079808974617	0.62489993538
0	250	410.699578162381	1.619769187764
0	252	413.930352424595	3.230774262214
0	255	419.441075469153	5.510723044558
0	259	423.377501060771	3.936425591618
0	261	426.605841673696	3.228340612925
0	263	429.300745646969	2.694903973273
0	266	429.957308310699	0.65656266373
0	270	433.967354694689	4.01004638399
0	274	436.251462696017	2.284108001328
0	276	439.283900886946	3.032438190929
0	278	442.123061242076	2.83916035513
0	281	443.620271775805	1.497210533729
0	283	444.554834183606	0.934562407801
0	289	446.217156880972	1.662322697366
0	293	458.243804421475	12.026647540503
0	298	465.454248856247	7.210444434772
0	300	472.588045361388	7.133796505141
0	302	473.078085894807	0.490040533419
0	304	474.069038858522	0.990952963715
0	306	474.187877751675	0.118838893153
0	309	477.174477346879	2.986599595204
0	311	479.549504721634	2.375027374755
0	315	480.967956698377	1.418451976743
0	324	504.117423782803	23.149467084426
0	328	516.840650005415	12.723226222612
0	331	523.825599686841	6.984949681426
0	333	535.179298232426	11.353698545585
0	336	543.15797365902	7.978675426594
0	338	544.29750229367	1.13952863465
0	341	546.386252746451	2.088750452781
0	343	549.216278663747	2.830025917296
0	345	549.554789060473	0.338510396726
0	348	555.390908863442	5.836119802969
0	355	560.589984650689	5.199075787247
0	358	563.084837732902	2.494853082213
0	360	566.589356297001	3.504518564099
0	363	567.223547072836	0.634190775835
0	366	581.220584386033	13.997037313197
0	369	583.985610681957	2.765026295924
0	371	584.133815920491	0.148205238534
0	379	602.60552296947	18.471707048979
0	382	617.114007719545	14.508484750075
0	384	619.133640671038	2.019632951493
0	387	623.854329945299	4.720689274261
0	389	626.236176789803	2.381846844504
0	391	631.242268059972	5.006091270169
0	393	632.051755285573	0.809487225601
0	395	637.823913909711	5.772158624138
0	398	640.77514341143	2.951229501719
0	401	647.537159671874	6.762016260444
0	403	648.771212857189	1.234053185315
0	405	650.419849183664	1.648636326475
0	408	652.279718547333	1.859869363669
0	411	655.154213989452	2.874495442119
0	416	667.553209348965	12.398995359513
0	420	677.779492367614	10.226283018649
0	422	678.851403898111	1.071911530497
0	424	679.054888064037	0.203484165926
0	429	689.636494401178	10.581606337141
0	431	695.188414448119	5.551920046941
0	433	698.190018983504	3.001604535385
0	439	704.167937971655	5.977918988151
0	443	709.489336859204	5.321398887549
0	446	716.536603588459	7.047266729255
0	448	717.140857044611	0.604253456152
0	450	718.452254402189	1.311397357578
0	452	719.31772659275	0.865472190561
0	455	724.895366983756	5.577640391006
0	457	733.195267078781	8.299900095025
0	459	736.233231945706	3.037964866925
0	461	738.007633585248	1.774401639542
0	466	750.30628686176	12.298653276512
0	468	753.427910203778	3.121623342018
0	473	759.615728744448	6.18781854067
0	476	760.085756484568	0.47002774012
0	479	763.471002108087	3.385245623519
0	481	765.029706264493	1.558704156406
0	485	781.365838464026	16.336132199533
0	490	789.39919070983	8.033352245804
0	493	793.401700996926	4.002510287096
0	496	802.081721939946	8.68002094302
0	499	808.24290124626	6.161179306314
0	503	812.966702792526	4.723801546266
0	505	817.675028323568	4.708325531042
0	507	822.952177011219	5.277148687651
0	510	826.762021916784	3.809844905565
0	513	837.325058095923	10.563036179139
0	517	839.063207894318	1.738149798395
0	520	845.94830550765	6.885097613332
0	522	846.711807000458	0.763501492808
0	527	878.383472119336	31.671665118878
0	531	882.13033775129	3.746865631954
0	533	892.076491127253	9.946153375963
0	536	905.91592307206	13.839431944807
0	538	909.701140575116	3.785217503056
0	544	922.639135078761	12.937994503645
0	546	922.999897174028	0.360762095267
0	550	933.527352270899	10.527455096871
0	552	934.493990612056	0.966638341157
0	556	940.548582224809	6.054591612753
0	558	945.753427947957	5.204845723148
0	560	956.923881166615	11.170453218658
0	563	970.459970241738	13.536089075123
0	568	987.469639651402	17.009669409664
0	570	1003.023663748727	15.554024097325
0	572	1006.278347364122	3.254683615395
0	575	1013.108168587941	6.829821223819
0	577	1014.853030130957	1.744861543016
0	579	1018.012307541425	3.159277410468
0	583	1028.568862587496	10.556555046071
0	587	1036.482278483745	7.913415896249
0	589	1042.792411929121	6.310133445376
0	591	1044.276809913088	1.484397983967
0	593	1045.400227172336	1.123417259248
0	595	1046.701897410262	1.301670237926
0	599	1052.959116331317	6.257218921055
0	601	1053.521182651414	0.562066320097
0	605	1056.877761881101	3.356579229687
0	607	1058.956371072968	2.078609191867
0	612	1072.322401453303	13.366030380335
0	615	1081.213257739687	8.890856286384
0	617	1081.941802620125	0.728544880438
0	619	1094.832176647909	12.890374027784
0	624	1107.066491915846	12.234315267937
0	630	1128.028663788297	20.962171872451
0	633	1130.941837527319	2.913173739022
0	635	1138.817372915641	7.875535388322
0	637	1143.065422870506	4.248049954865
0	639	1144.35357828343	1.288155412924
0	643	1153.791366475239	9.437788191809
0	646	1161.12218043387	7.330813958631
0	649	1161.77761423165	0.65543379778
0	652	1165.736579635234	3.958965403584
0	654	1166.597350346013	0.860770710779
0	657	1174.122511463571	7.525161117558
0	659	1174.491131422682	0.368619959111
0	662	1184.325466323775	9.834334901093
0	668	1207.876064728434	23.550598404659
0	672	1222.138674491517	14.262609763083
0	674	1222.980136703519	0.841462212002
0	676	1226.800241089493	3.820104385974
0	679	1227.848286496566	1.048045407073
0	681	1229.424580817978	1.576294321412
0	684	1231.550906591695	2.126325773717
0	686	1233.18707987638	1.636173284685
0	689	1236.857091906639	3.670012030259
0	693	1244.258851827452	7.401759920813
0	696	1257.68132802518	13.422476197728
0	698	1264.156860735627	6.475532710447
0	705	1285.17743847732	21.020577741693
0	707	1288.97561095623	3.79817247891
0	710	1301.673720299363	12.698109343133
0	712	1304.18116709899	2.507446799627
0	716	1309.992163907207	5.810996808217
0	718	1313.324793279301	3.332629372094
0	722	1334.97817993879	21.653386659489
0	724	1335.907530611565	0.929350672775
0	726	1344.273348486108	8.365817874543
0	729	1347.11541338275	2.842064896642
0	733	1353.014883957778	5.899470575028
0	735	1353.351730161239	0.336846203461
0	737	1356.892355666082	3.540625504843
0	740	1360.894685775192	4.00233010911
0	744	1363.216045016613	2.321359241421
0	746	1363.467598021755	0.251553005142
0	748	1365.409646386588	1.942048364833
0	750	1371.98185938877	6.572213002182
0	754	1380.924773042801	8.942913654031
0	757	1389.765689618891	8.84091657609
0	759	1392.474539707861	2.70885008897
0	761	1393.556279208113	1.081739500252
0	763	1396.697016032037	3.140736823924
0	768	1399.713931911726	3.016915879689
0	772	1412.809333343173	13.095401431447
0	775	1414.277814135957	1.468480792784
0	777	1415.023636375677	0.74582223972
0	780	1418.213943012238	3.190306636561
0	783	1420.549942137168	2.33599912493
0	785	1420.887521643796	0.337579506628
0	786	1425.614735975327	4.727214331531
0	790	1428.406525643293	2.791789667966
0	803	1438.845391144939	10.438865501646
0	805	1441.575176372921	2.729785227982
0	808	1456.872597426754	15.297421053833
0	811	1465.598598423242	8.726000996488
0	814	1477.649611373259	12.051012950017
0	816	1478.588402074444	0.938790701185
0	821	1495.112574690845	16.524172616401
0	825	1503.834632469644	8.722057778799
0	827	1518.552653296282	14.718020826638
0	830	1523.802426513685	5.249773217403
0	832	1524.599830870469	0.797404356784
0	834	1524.920938748004	0.321107877535
0	836	1525.590205747743	0.669266999739
0	838	1528.54680840648	2.956602658737
0	847	1560.623241313801	32.076432907321
0	849	1568.692802677097	8.069561363296
0	851	1569.316215435315	0.623412758218
0	853	1571.276128733559	1.959913298244
0	856	1578.879565624883	7.603436891324
0	861	1586.093731636286	7.214166011403
0	863	1595.12970683752	9.035975201234
0	867	1606.086138262585	10.956431425065
0	869	1606.420356394905	0.33421813232
0	874	1623.768925177621	17.348568782716
0	876	1624.12424862581	0.355323448189
0	878	1632.600792907706	8.476544281896
0	881	1637.991863768337	5.391070860631
0	884	1639.703405489227	1.71154172089
0	889	1663.563167068633	23.859761579406
0	891	1667.909554038209	4.346386969576
0	893	1673.974734813223	6.065180775014
0	896	1681.290731879134	7.315997065911
0	901	1687.902207861157	6.611475982023
0	903	1691.261281128397	3.35907326724
0	905	1692.166858575497	0.9055774471
0	911	1700.060485262093	7.893626686596
0	913	1706.671844650179	6.611359388086
0	915	1706.860877435852	0.189032785673
0	917	1716.110041133999	9.249163698147
0	921	1721.088785916654	4.978744782655
0	924	1725.055711635299	3.966925718645
0	927	1727.021054494006	1.965342858707
0	929	1727.715240097748	0.694185603742
0	931	1731.059412192106	3.344172094358
0	933	1735.84530879584	4.785896603734
0	938	1745.348059626025	9.502750830185
0	940	1746.0833938107	0.735334184675
0	942	1747.402753568928	1.319359758228
0	947	1752.990346131449	5.587592562521
0	949	1755.28387592577	2.293529794321
0	954	1776.000493495058	20.716617569288
0	956	1779.183601330945	3.183107835887
0	958	1785.58957242484	6.405971093895
0	965	1804.094246826872	18.504674402032
0	967	1810.607166993628	6.512920166756
0	969	1815.26379642638	4.656629432752
0	973	1830.268435293161	15.004638866781
0	976	1844.357874819639	14.089439526478
0	978	1849.285905503439	4.9280306838
0	980	1849.990274104687	0.704368601248
0	986	1865.679775907529	15.689501802842
0	988	1868.997496994211	3.317721086682
0	991	1878.261694969487	9.264197975276
0	993	1878.901743188191	0.640048218704
0	995	1883.460360555154	4.558617366963
0	999	1884.434353792576	0.973993237422
0	1001	1884.980589241759	0.546235449183
0	1005	1900.112135407695	15.131546165936
0	1008	1906.740352359492	6.628216951797
0	1014	1930.331102111654	23.590749752162
0	1017	1939.471329227295	9.140227115641
0	1019	1940.070166971167	0.598837743872
0	1021	1943.154367206183	3.084200235016
0	1023	1943.40000238075	0.245635174567
0	1025	1950.341009769761	6.941007389011
0	1027	1952.182256869007	1.841247099246
0	1031	1957.851902366386	5.669645497379
0	1034	1964.65472890195	6.802826535564
0	1037	1968.24903433978	3.59430543783
0	1040	1976.343051537652	8.094017197872
0	1042	1979.533748537552	3.1906969999
0	1047	1996.588630683366	17.054882145814
0	1049	2002.19004776355	5.601417080184
0	1053	2022.603650849111	20.413603085561
0	1055	2028.776654455741	6.17300360663
0	1060	2035.607961625511	6.83130716977
0	1063	2047.074371833056	11.466410207545
0	1065	2047.818912130427	0.744540297371
0	1068	2054.153455076938	6.334542946511
0	1070	2059.164890128798	5.01143505186
0	1072	2061.311437768433	2.146547639635
0	1074	2065.502177626244	4.190739857811
0	1077	2075.28111303026	9.778935404016
0	1081	2079.123689074234	3.842576043974
0	1083	2079.250924093528	0.127235019294
0	1085	2079.906602068761	0.655677975233
0	1089	2093.937679811084	14.031077742323
0	1095	2107.27704673616	13.339366925076
0	1097	2108.314107145827	1.037060409667
0	1101	2116.61198988709	8.297882741263
0	1103	2118.136358424673	1.524368537583
0	1106	2120.858990430897	2.722632006224
0	1109	2122.233840059641	1.374849628744
0	1111	2123.973953873939	1.740113814298
0	1114	2126.276397756607	2.302443882668
0	1119	2139.29669750851	13.020299751903
0	1122	2140.600159110377	1.303461601867
0	1125	2144.023355742254	3.423196631877
0	1127	2146.36892130856	2.345565566306
0	1131	2160.977445987868	14.608524679308
0	1133	2165.009759370076	4.032313382208
0	1135	2167.992998422441	2.983239052365
0	1137	2169.381224973877	1.388226551436
0	1139	2173.74642394908	4.365198975203
0	1141	2174.763810349191	1.017386400111
0	1144	2181.027306026028	6.263495676837
0	1151	2200.414260722635	19.386954696607
0	1153	2203.411179818322	2.996919095687
0	1155	2206.668027837008	3.256848018686
0	1159	2217.162169062485	10.494141225477
0	1161	2217.427512761661	0.265343699176
0	1164	2223.246435238993	5.818922477332
0	1168	2232.979473658907	9.733038419914
0	1170	2236.316276283027	3.33680262412
0	1175	2245.981250260813	9.664973977786
0	1177	2255.463736891199	9.482486630386
0	1181	2258.487546408274	3.023809517075
0	1183	2260.598148151072	2.110601742798
0	1190	2310.042253520158	49.444105369086
0	1192	2320.114043809055	10.071790288897
0	1194	2320.28358446205	0.169540652995
0	1196	2321.981217803349	1.697633341299
0	1199	2323.403225097964	1.422007294615
0	1202	2342.131819400005	18.728594302041
0	1206	2344.248500816677	2.116681416672
0	1208	2344.945741268836	0.697240452159
0	1210	2345.438782924565	0.493041655729
0	1213	2349.990152825413	4.551369900848
0	1215	2354.89784480388	4.907691978467
0	1217	2355.544807802847	0.646962998967
0	1221	2358.243960757776	2.699152954929
0	1224	2363.789703463842	5.545742706066
0	1228	2368.440801964747	4.651098500905
0	1230	2371.180569076124	2.739767111377
0	1232	2373.973643081221	2.793074005097
0	1234	2374.392245978816	0.418602897595
0	1240	2385.445037465321	11.052791486505
0	1242	2390.965110611261	5.52007314594
0	1244	2394.796209190476	3.831098579215
0	1248	2399.951894624204	5.155685433728
0	1250	2401.20260639801	1.250711773806
0	1253	2410.550343150838	9.347736752828
0	1256	2413.892924612637	3.342581461799
0	1258	2415.337556133336	1.444631520699
0	1264	2442.25083491363	26.913278780294
0	1266	2443.229620592825	0.978785679195
0	1269	2447.370844858429	4.141224265604
0	1272	2452.73185652253	5.361011664101
0	1276	2458.343108651023	5.611252128493
0	1279	2461.899662531566	3.556553880543
0	1281	2465.984933807703	4.085271276137
0	1283	2471.956772436374	5.971838628671
0	1287	2474.878593447203	2.921821010829
0	1291	2480.026922338018	5.148328890815
0	1293	2482.31038567417	2.283463336152
0	1295	2486.201779597307	3.891393923137
0	1299	2500.19323490507	13.991455307763
0	1301	2502.581186927943	2.387952022873
0	1307	2515.484393718764	12.903206790821
0	1310	2522.754847876482	7.270454157718
0	1312	2529.286023486625	6.531175610143
0	1314	2530.503671225096	1.217647738471
0	1318	2536.470787255437	5.967116030341
0	1320	2537.156402584908	0.685615329471
0	1322	2537.664618736951	0.508216152043
0	1325	2545.231618893525	7.567000156574
0	1328	2555.941227314051	10.709608420526
0	1332	2557.990200136415	2.048972822364
0	1336	2563.257013373256	5.266813236841
0	1338	2563.474778028016	0.21776465476
0	1341	2566.004460257098	2.529682229082
0	1345	2575.529762197259	9.525301940161
0	1347	2581.167060337973	5.637298140714
0	1350	2585.733960664901	4.566900326928
0	1353	2593.405971494625	7.672010829724
0	1360	2603.06808951917	9.662118024545
0	1362	2603.30182403612	0.23373451695
0	1364	2605.985151246978	2.683327210858
0	1367	2609.782656423012	3.797505176034
0	1370	2610.930555246631	1.147898823619
0	1372	2611.856731583546	0.926176336915
0	1374	2611.963275632482	0.106544048936
0	1376	2612.639041296146	0.675765663664
0	1378	2614.251689764237	1.612648468091
0	1380	2615.380784102351	1.129094338114
0	1385	2625.106438322487	9.725654220136
0	1390	2632.169071451513	7.062633129026
0	1392	2637.580929427956	5.411857976443
0	1394	2638.004875051308	0.423945623352
0	1396	2640.933230711941	2.928355660633
0	1401	2652.448995523089	11.515764811148
0	1406	2657.34916751018	4.900171987091
0	1408	2657.821554045691	0.472386535511
0	1410	2672.161411155967	14.339857110276
0	1413	2676.673417571146	4.512006415179
0	1415	2676.765120699357	0.091703128211
0	1418	2685.718748199322	8.953627499965
0	1420	2685.965971961983	0.247223762661
0	1422	2690.577948199774	4.611976237791
0	1424	2691.151872547231	0.573924347457
0	1425	2691.55803524375	0.406162696519
0	1432	2693.796262776957	2.238227533207
0	1439	2705.212510579686	11.416247802729
0	1444	2716.509380472986	11.2968698933
0	1446	2717.103348684281	0.593968211295
0	1449	2718.876751532892	1.773402848611
0	1451	2720.21874953098	1.341997998088
0	1453	2720.433520333362	0.214770802382
0	1457	2725.446140416459	5.012620083097
0	1459	2728.003925775479	2.55778535902
0	1461	2733.049811283982	5.045885508503
0	1467	2750.605226311251	17.555415027269
0	1469	2753.740281955267	3.135055644016
0	1473	2758.166641986492	4.426360031225
0	1476	2759.520734055465	1.354092068973
0	1479	2761.983916723569	2.463182668104
0	1483	2775.016861582939	13.03294485937
0	1486	2782.576563153708	7.559701570769
0	1488	2788.348846894974	5.772283741266
0	1490	2790.706776767178	2.357929872204
0	1497	2814.775675507743	24.068898740565
0	1499	2821.922565835752	7.146890328009
0	1501	2822.642120109671	0.719554273919
0	1505	2829.23077997743	6.588659867759
0	1508	2831.122409721558	1.891629744128
0	1510	2833.382034878126	2.259625156568
0	1512	2833.656825760844	0.274790882718
0	1514	2835.778696737384	2.12187097654
0	1516	2837.232798495926	1.454101758542
0	1518	2838.564010929447	1.331212433521
0	1520	2841.663842575452	3.099831646005
0	1524	2842.000119585022	0.33627700957
0	1528	2844.613036970568	2.612917385546
0	1532	2852.144498387115	7.531461416547
0	1537	2865.201123930971	13.056625543856
0	1541	2868.360048459536	3.158924528565
0	1544	2877.362023058652	9.001974599116
0	1548	2883.777361037658	6.415337979006
0	1554	2901.942305802771	18.164944765113
0	1556	2906.261801467352	4.319495664581
0	1559	2908.58869096041	2.326889493058
0	1562	2919.089871865895	10.501180905485
0	1566	2925.357164213556	6.267292347661
0	1568	2925.792372102254	0.435207888698
0	1570	2926.006504383691	0.214132281437
0	1572	2926.765345088779	0.758840705088
0	1577	2937.695079663228	10.929734574449
0	1581	2955.927515820114	18.232436156886
0	1584	2978.230075604353	22.302559784239
0	1586	2978.540295959614	0.310220355261
0	1588	2978.543155681636	0.002859722022
0	1592	2987.908499350171	9.365343668535
0	1594	2991.691083541443	3.782584191272
0	1599	3004.454697358713	12.76361381727
0	1601	3008.20673915455	3.752041795837
0	1603	3010.428299988877	2.221560834327
0	1605	3013.337999924472	2.909699935595
0	1609	3018.160787558784	4.822787634312
0	1612	3019.45846620522	1.297678646436
0	1616	3034.065409596138	14.606943390918
0	1618	3035.704478206097	1.639068609959
0	1621	3043.213759871135	7.509281665038
0	1623	3043.316069990921	0.102310119786
0	1628	3057.903396145398	14.587326154477
0	1630	3060.75177880274	2.848382657342
0	1632	3061.752491388328	1.000712585588
0	1636	3069.514170784721	7.761679396393
0	1639	3080.995908909407	11.481738124686
0	1641	3081.113632309372	0.117723399965
0	1643	3083.454486611837	2.340854302465
0	1646	3084.744633765608	1.290147153771
0	1650	3099.190395044035	14.445761278427
0	1652	3099.294883858203	0.104488814168
0	1656	3102.849366610325	3.554482752122
0	1658	3104.458011035842	1.608644425517
0	1666	3137.870025892984	33.412014857142
0	1669	3142.419553064081	4.549527171097
0	1671	3147.945298525568	5.525745461487
0	1674	3156.228517049842	8.283218524274
0	1678	3158.37256517594	2.144048126098
0	1680	3165.146962687851	6.774397511911
0	1682	3168.025085044783	2.878122356932
0	1688	3175.158721755055	7.133636710272
0	1690	3183.909266758475	8.75054500342
0	1692	3186.966774604433	3.057507845958
0	1695	3191.465615414959	4.498840810526
0	1697	3192.798497869865	1.332882454906
0	1699	3193.144071237228	0.345573367363
0	1701	3193.375631044631	0.231559807403
0	1704	3200.236380598131	6.8607495535
0	1709	3204.62188735869	4.385506760559
0	1712	3209.373563423272	4.751676064582
0	1717	3218.972263308592	9.59869988532
0	1719	3227.600076565443	8.627813256851
0	1722	3231.564039409643	3.9639628442
0	1727	3243.480728553827	11.916689144184
0	1729	3253.795373361306	10.314644807479
0	1733	3268.363479009758	14.568105648452
0	1735	3269.979400143574	1.615921133816
0	1737	3278.513586475642	8.534186332068
0	1741	3279.790451592827	1.276865117185
0	1743	3281.620348964092	1.829897371265
0	1746	3289.783891538578	8.163542574486
0	1748	3292.939688689798	3.15579715122
0	1750	3294.95827821507	2.018589525272
0	1752	3295.640854777476	0.682576562406
0	1754	3299.720774181999	4.079919404523
0	1756	3303.691638557072	3.970864375073
0	1758	3304.302905427061	0.611266869989
0	1762	3306.189976548656	1.887071121595
0	1763	3306.894500704165	0.704524155509
0	1764	3309.435056693895	2.54055598973
0	1774	3315.337814466047	5.902757772152
0	1775	3315.36317639795	0.025361931903
0	1776	3317.257709929474	1.894533531524
0	1789	3341.965451962312	24.707742032838
0	1792	3348.327611423389	6.362159461077
0	1795	3352.445899558453	4.118288135064
0	1802	3360.496978793564	8.051079235111
0	1804	3360.63567906772	0.138700274156
0	1806	3362.62267889925	1.98699983153
0	1810	3378.300527702129	15.677848802879
0	1812	3382.135022797064	3.834495094935
0	1814	3386.952028254946	4.817005457882
0	1816	3392.606111985635	5.654083730689
0	1818	3395.970544175807	3.364432190172
0	1822	3404.128981788899	8.158437613092
0	1826	3406.11391297321	1.984931184311
0	1830	3416.730673615947	10.616760642737
0	1832	3418.455932669828	1.725259053881
0	1837	3429.488245213422	11.032312543594
0	1839	3430.621374719896	1.133129506474
0	1842	3435.112395696827	4.491020976931
0	1846	3442.426107642	7.313711945173
0	1848	3443.655955783072	1.229848141072
0	1850	3445.990344878562	2.33438909549
0	1854	3464.274371112109	18.284026233547
0	1856	3469.309289449664	5.034918337555
0	1858	3471.394185869025	2.084896419361
0	1860	3471.971733493814	0.577547624789
0	1862	3473.594202997729	1.622469503915
0	1864	3478.408519680973	4.814316683244
0	1865	3479.614547698031	1.206028017058
0	1874	3484.110230957543	4.495683259512
0	1876	3484.365584046887	0.255353089344
0	1878	3486.080343525909	1.714759479022
0	1885	3490.70389957382	4.623556047911
0	1888	3497.122158672064	6.418259098244
0	1892	3506.732957513005	9.610798840941
0	1894	3509.025858211268	2.292900698263
0	1897	3515.003460412242	5.977602200974
0	1902	3527.576066711826	12.572606299584
0	1906	3535.483229131059	7.907162419233
0	1909	3537.976872113937	2.493642982878
0	1912	3541.689310729173	3.712438615236
0	1917	3549.66423649588	7.974925766707
0	1921	3555.564083123058	5.899846627178
0	1924	3576.230310544588	20.66622742153
0	1926	3576.244515890741	0.014205346153
0	1929	3585.549021337827	9.304505447086
0	1932	3599.131665734424	13.582644396597
0	1934	3604.372456076606	5.240790342182
0	1937	3609.904235697801	5.531779621195
0	1939	3610.020246709217	0.116011011416
0	1942	3616.735658063776	6.715411354559
0	1944	3618.650463872645	1.914805808869
0	1946	3619.063701874007	0.413238001362
0	1949	3626.594103087563	7.530401213556
0	1953	3633.789969577583	7.19586649002
0	1955	3634.638281487316	0.848311909733
0	1957	3636.119270787708	1.480989300392
0	1962	3642.297941639101	6.178670851393
0	1970	3680.882778469759	38.584836830658
0	1972	3695.766658034294	14.883879564535
0	1974	3698.083867842156	2.317209807862
0	1977	3706.332538598981	8.248670756825
0	1979	3711.112327377987	4.779788779006
0	1982	3719.24754410129	8.135216723303
0	1984	3722.888808760861	3.641264659571
0	1986	3732.939419829366	10.050611068505
0	1990	3742.757658408195	9.818238578829
0	1992	3748.641386906902	5.883728498707
0	1999	3773.411683944887	24.770297037985
0	2001	3773.551794394995	0.140110450108
0	2003	3781.23468171273	7.682887317735
0	2008	3797.772838712396	16.538156999666
0	2010	3799.110744281444	1.337905569048
0	2012	3811.59997852503	12.489234243586
0	2014	3823.384447132271	11.784468607241
0	2017	3824.960419051324	1.575971919053
0	2019	3827.118746210291	2.158327158967
0	2023	3830.306201958953	3.187455748662
0	2027	3838.610449454058	8.304247495105
0	2029	3839.085607565045	0.475158110987
0	2031	3848.002800282505	8.91719271746
0	2034	3855.054579873018	7.051779590513
0	2036	3856.136739921215	1.082160048197
0	2039	3860.02045369146	3.883713770245
0	2041	3863.165793792265	3.145340100805
0	2048	3884.298811051424	21.133017259159
0	2050	3889.407063980714	5.10825292929
0	2052	3896.518123171735	7.111059191021
0	2054	3896.760413235616	0.242290063881
0	2056	3897.911053628281	1.150640392665
0	2058	3900.606119779277	2.695066150996
0	2060	3901.968444597961	1.362324818684
0	2066	3924.351444476399	22.382999878438
0	2073	3945.392155419343	21.040710942944
0	2075	3947.962282682559	2.570127263216
0	2077	3948.253818764397	0.291536081838
0	2079	3955.300459383388	7.046640618991
0	2081	3961.28695200661	5.986492623222
0	2085	3967.047057263537	5.760105256927
0	2087	3968.071057069534	1.023999805997
0	2091	3972.917931631578	4.846874562044
0	2095	3990.166738590245	17.248806958667
0	2098	3994.981168405611	4.814429815366
0	2102	4007.171559788657	12.190391383046
0	2104	4007.174700092652	0.003140303995
0	2106	4007.699662340095	0.524962247443
0	2108	4009.032522667923	1.332860327828
0	2113	4024.098868517295	15.066345849372
0	2115	4027.993575242276	3.894706724981
0	2117	4031.509252385138	3.515677142862
0	2120	4032.661406120637	1.152153735499
0	2124	4049.188281630719	16.526875510082
0	2126	4049.412099658444	0.223818027725
0	2130	4057.514519593908	8.102419935464
0	2134	4065.369673523396	7.855153929488
0	2137	4075.679208492001	10.309534968605
0	2139	4075.789110922422	0.109902430421
0	2142	4084.832720287491	9.043609365069
0	2147	4096.502601065311	11.66988077782
0	2149	4102.744148992039	6.241547926728
0	2151	4103.211443260679	0.46729426864
0	2153	4109.941891509219	6.73044824854
0	2157	4121.444604917849	11.50271340863
0	2160	4124.531570988396	3.086966070547
0	2164	4145.339160579944	20.807589591548
0	2166	4147.994160544024	2.65499996408
0	2168	4148.421459225049	0.427298681025
0	2170	4149.641210631718	1.219751406669
0	2172	4151.385930609075	1.744719977357
0	2175	4153.599339436127	2.213408827052
0	2179	4174.577548928964	20.978209492837
0	2182	4181.252759770796	6.675210841832
0	2187	4199.789921035719	18.537161264923
0	2190	4203.055887823581	3.265966787862
0	2196	4215.104626389644	12.048738566063
0	2198	4216.741653743108	1.637027353464
0	2201	4228.920331262915	12.178677519807
0	2203	4230.330949185713	1.410617922798
0	2208	4235.728933302678	5.397984116965
0	2210	4250.01184926857	14.282915965892
0	2212	4250.314448072214	0.302598803644
0	2214	4255.501580763849	5.187132691635
0	2216	4255.614055287971	0.112474524122
0	2220	4261.144811651837	5.530756363866
0	2222	4264.217393975469	3.072582323632
0	2224	4266.901761461798	2.684367486329
0	2227	4269.564640484725	2.662879022927
0	2230	4279.976241717965	10.41160123324
0	2232	4280.813188886716	0.836947168751
0	2234	4280.887390522662	0.074201635946
0	2236	4284.267860118539	3.380469595877
0	2237	4285.88927957088	1.621419452341
0	2244	4293.097765056495	7.208485485615
0	2245	4294.770252867775	1.67248781128
0	2249	4297.573964369673	2.803711501898
0	2258	4301.250768994052	3.676804624379
0	2260	4304.897576528214	3.646807534162
0	2262	4305.387624305975	0.490047777761
0	2268	4314.09806756583	8.710443259855
0	2270	4314.383911566785	0.285844000955
0	2274	4320.895785464378	6.511873897593
0	2276	4326.716788636088	5.82100317171
0	2279	4329.524934097604	2.808145461516
0	2281	4330.263109408449	0.738175310845
0	2288	4334.02862694122	3.765517532771
0	2290	4335.890794542483	1.862167601263
0	2294	4341.889145228669	5.998350686186
0	2296	4342.92925207027	1.040106841601
0	2300	4351.781132781682	8.851880711412
0	2305	4353.411203885355	1.630071103673
0	2307	4354.022176878335	0.61097299298
0	2310	4370.781744099343	16.759567221008
0	2312	4377.747226522497	6.965482423154
0	2315	4380.154447418193	2.407220895696
0	2318	4381.781008401081	1.626560982888
0	2321	4383.132596936438	1.351588535357
0	2323	4387.084876278189	3.952279341751
0	2325	4390.312030059116	3.227153780927
0	2334	4416.768353385735	26.456323326619
0	2336	4420.63031293671	3.861959550975
0	2341	4424.357850034633	3.727537097923
0	2343	4431.072144580032	6.714294545399
0	2346	4438.685388765186	7.613244185154
0	2348	4438.938320071398	0.252931306212
0	2353	4447.613991868215	8.675671796817
0	2355	4449.251755312294	1.637763444079
0	2357	4457.469710996051	8.217955683757
0	2360	4459.121137210315	1.651426214264
0	2364	4467.07280521874	7.951668008425
0	2366	4471.026849462342	3.954044243602
0	2370	4476.410611884372	5.38376242203
0	2372	4479.840412187247	3.429800302875
0	2377	4510.967729671087	31.12731748384
0	2379	4513.822503633066	2.854773961979
0	2383	4523.994622693143	10.172119060077
0	2385	4528.430406465503	4.43578377236
0	2390	4553.942139723836	25.511733258333
0	2392	4554.171483377639	0.229343653803
0	2395	4558.048214344315	3.876730966676
0	2397	4559.007046914324	0.958832570009
0	2400	4568.942230934383	9.935184020059
0	2405	4579.691070130159	10.748839195776
0	2407	4580.025169302465	0.334099172306
0	2409	4588.562931225651	8.537761923186
0	2411	4591.077540957751	2.5146097321
0	2413	4602.759606386758	11.682065429007
0	2416	4606.813458994859	4.053852608101
0	2418	4608.871924948999	2.05846595414
0	2424	4617.10600841538	8.234083466381
0	2426	4617.16768395695	0.06167554157
0	2430	4624.159963916292	6.992279959342
0	2434	4631.040013413875	6.880049497583
0	2436	4634.464994701121	3.424981287246
0	2438	4634.891972576271	0.42697787515
0	2440	4636.430451215863	1.538478639592
0	2445	4650.001453579403	13.57100236354
0	2447	4650.350022395801	0.348568816398
0	2449	4656.073908309708	5.723885913907
0	2452	4669.033378748841	12.959470439133
0	2455	4677.259491400964	8.226112652123
0	2460	4689.535555600173	12.276064199209
0	2462	4706.972277004615	17.436721404442
0	2465	4708.996507606569	2.024230601954
0	2468	4722.600887594108	13.604379987539
0	2472	4732.456752291399	9.855864697291
0	2474	4732.489465822313	0.032713530914
0	2477	4747.256005712517	14.766539890204
0	2479	4751.198326492916	3.942320780399
0	2483	4769.271717245036	18.07339075212
0	2486	4777.742544513756	8.47082726872
0	2488	4777.936408665687	0.193864151931
0	2493	4783.190724353398	5.254315687711
0	2496	4785.422884524876	2.232160171478
0	2498	4786.765949391854	1.343064866978
0	2500	4788.295645806509	1.529696414655
0	2502	4791.25650313161	2.960857325101
0	2504	4792.659125541206	1.402622409596
0	2506	4793.019013732273	0.359888191067
0	2513	4807.474335972978	14.455322240705
0	2516	4819.029877070047	11.555541097069
0	2518	4820.96354571967	1.933668649623
0	2523	4827.063421803309	6.099876083639
0	2526	4829.555314379765	2.491892576456
0	2528	4832.973820295741	3.418505915976
0	2532	4840.761313524911	7.78749322917
0	2535	4845.866950777321	5.10563725241
0	2537	4852.622436350897	6.755485573576
0	2539	4858.842138226867	6.21970187597
0	2542	4860.303147744514	1.461009517647
0	2544	4864.179793355921	3.876645611407
0	2549	4869.966336800661	5.78654344474
0	2552	4880.869621453154	10.903284652493
0	2554	4881.335984733439	0.466363280285
0	2556	4887.066589829675	5.730605096236
0	2558	4891.057359845329	3.990770015654
0	2561	4894.300093412253	3.242733566924
0	2563	4896.192507975722	1.892414563469
0	2566	4902.574041915682	6.38153393996
0	2569	4907.081797001723	4.507755086041
0	2571	4909.729813597659	2.648016595936
0	2576	4929.675169811249	19.94535621359
0	2580	4935.201327707345	5.526157896096
0	2582	4936.565349006733	1.364021299388
0	2584	4937.294396454947	0.729047448214
0	2589	4942.608832310754	5.314435855807
0	2591	4944.171004855118	1.562172544364
0	2594	4945.481187656923	1.310182801805
0	2596	4945.986685797394	0.505498140471
0	2599	4949.54786087423	3.561175076836
0	2604	4952.329567467559	2.781706593329
0	2607	4959.550379653698	7.220812186139
0	2610	4970.574044120721	11.023664467023
0	2614	4979.192683352543	8.618639231822
0	2617	4982.826685580904	3.634002228361
0	2621	4998.925974560877	16.099288979973
0	2627	5017.068344834269	18.142370273392
0	2630	5035.056842386618	17.988497552349
0	2633	5039.112614186766	4.055771800148
0	2636	5040.990457328641	1.877843141875
0	2639	5049.797091239675	8.806633911034
0	2641	5050.248024339655	0.45093309998
0	2643	5058.134262476329	7.886238136674
0	2645	5060.994398374547	2.860135898218
0	2648	5063.571099811851	2.576701437304
0	2651	5066.373278120752	2.802178308901
0	2653	5074.54426409733	8.170985976578
0	2656	5081.473294865199	6.929030767869
0	2659	5083.020434747526	1.547139882327
0	2662	5098.971827811126	15.9513930636
0	2665	5107.430736411594	8.458908600468
0	2667	5108.17033900609	0.739602594496
0	2671	5110.826548330024	2.656209323934
0	2674	5112.945765440624	2.1192171106
0	2676	5113.84424469309	0.898479252466
0	2679	5115.820225047942	1.975980354852
0	2684	5118.510784321047	2.690559273105
0	2689	5138.842586222813	20.331801901766
0	2693	5143.829511786237	4.986925563424
0	2695	5148.040651326564	4.211139540327
0	2700	5172.142692739447	24.102041412883
0	2702	5174.019851760866	1.877159021419
0	2704	5175.479608157627	1.459756396761
0	2706	5176.166172969244	0.686564811617
0	2709	5177.884423272286	1.718250303042
0	2712	5179.257369850453	1.372946578167
0	2717	5197.894376956994	18.637007106541
0	2720	5206.141423360811	8.247046403817
0	2722	5207.16731281998	1.025889459169
0	2724	5212.596756221355	5.429443401375
0	2726	5212.750682700732	0.153926479377
0	2728	5213.897010623997	1.146327923265
0	2733	5227.148305655619	13.251295031622
0	2738	5248.238161431747	21.089855776128
0	2740	5255.634868690549	7.396707258802
0	2742	5255.937337815623	0.302469125074
0	2744	5260.6402518359	4.702914020277
0	2746	5267.032755915254	6.392504079354
0	2750	5275.294757885898	8.262001970644
0	2754	5287.922203344957	12.627445459059
0	2757	5303.192623700254	15.270420355297
0	2759	5303.993718209754	0.8010945095
0	2761	5304.389476953565	0.395758743811
0	2765	5319.139354726738	14.749877773173
0	2768	5323.589209368624	4.449854641886
0	2770	5329.50216664385	5.912957275226
0	2772	5330.745519368262	1.243352724412
0	2774	5338.492303408291	7.746784040029
0	2779	5341.944809595088	3.452506186797
0	2781	5344.1662028454	2.221393250312
0	2783	5349.098221663181	4.932018817781
0	2787	5361.12107659644	12.022854933259
0	2790	5369.216510444652	8.095433848212
0	2794	5375.993473630477	6.776963185825
0	2796	5380.158485248113	4.165011617636
0	2798	5385.213199937879	5.054714689766
0	2802	5394.558996389394	9.345796451515
0	2806	5399.87673437951	5.317737990116
0	2810	5420.840958610622	20.964224231112
0	2814	5440.811781453201	19.970822842579
0	2817	5455.037806677029	14.226025223828
0	2819	5460.425054526302	5.387247849273
0	2822	5462.325916753114	1.900862226812
0	2825	5467.031443320251	4.705526567137
0	2827	5468.548731953962	1.517288633711
0	2830	5478.214467423865	9.665735469903
0	2832	5481.035505353095	2.82103792923
0	2834	5482.100178275207	1.064672922112
0	2836	5483.546312496269	1.446134221062
0	2838	5485.069611843524	1.523299347255
0	2841	5490.905823355381	5.836211511857
0	2843	5491.518161171358	0.612337815977
0	2844	5491.734485779102	0.216324607744
0	2845	5491.917674585868	0.183188806766
0	2849	5503.066850033267	11.149175447399
0	2850	5509.557098954363	6.490248921096
0	2851	5514.035024425974	4.477925471611
0	2855	5516.900295041193	2.865270615219
0	2856	5518.963503547155	2.063208505962
0	2863	5522.132944467744	3.169440920589
0	2876	5525.171338410819	3.038393943075
0	2883	5539.276590155714	14.105251744895
0	2884	5540.727607993808	1.451017838094
0	2885	5543.896122192112	3.168514198304
0	2896	5550.368596690831	6.472474498719
0	2905	5568.395080181258	18.026483490427
0	2907	5569.275420599917	0.880340418659
0	2910	5573.001649735382	3.726229135465
0	2913	5575.88082688147	2.879177146088
0	2915	5577.795509390774	1.914682509304
0	2917	5577.860735971323	0.065226580549
0	2919	5579.24818497754	1.387449006217
0	2922	5581.020700079592	1.772515102052
0	2925	5584.597022381788	3.576322302196
0	2929	5590.290511585344	5.693489203556
0	2931	5590.299702932967	0.009191347623
0	2935	5598.711817474942	8.412114541975
0	2937	5604.167182343065	5.455364868123
0	2941	5607.757625695121	3.590443352056
0	2943	5611.565066608331	3.80744091321
0	2947	5632.86453287319	21.299466264859
0	2952	5637.664111634266	4.799578761076
0	2955	5657.586536040875	19.922424406609
0	2959	5662.916537322536	5.330001281661
0	2962	5674.39675216029	11.480214837754
0	2967	5681.374418113997	6.977665953707
0	2969	5682.170153424741	0.795735310744
0	2971	5690.429076700826	8.258923276085
0	2976	5692.990631834253	2.561555133427
0	2979	5713.184531449556	20.193899615303
0	2981	5713.28400882853	0.099477378974
0	2984	5722.931301010528	9.647292181998
0	2986	5743.241821142288	20.31052013176
0	2989	5747.984644593358	4.74282345107
0	2991	5748.083068649581	0.098424056223
0	2994	5752.148486301944	4.065417652363
0	2996	5755.923105650296	3.774619348352
0	2998	5757.202773934487	1.279668284191
0	3000	5758.794685880578	1.591911946091
0	3006	5772.271850991912	13.477165111334
0	3011	5780.403429240552	8.13157824864
0	3013	5789.633944737847	9.230515497295
0	3015	5793.719325853449	4.085381115602
0	3017	5799.71960112806	6.000275274611
0	3019	5802.045741010268	2.326139882208
0	3022	5809.835084269273	7.789343259005
0	3024	5811.129013359495	1.293929090222
0	3026	5813.81249820552	2.683484846025
0	3030	5819.121619096729	5.309120891209
0	3033	5823.309215128425	4.187596031696
0	3038	5831.80736209291	8.498146964485
0	3040	5831.866113213374	0.058751120464
0	3042	5833.344063254548	1.477950041174
0	3045	5835.501198169794	2.157134915246
0	3048	5836.430155167354	0.92895699756
0	3050	5843.577326505831	7.147171338477
0	3052	5845.025181863672	1.447855357841
0	3054	5845.137752940462	0.11257107679
0	3060	5863.498229028453	18.360476087991
0	3065	5872.392189277746	8.893960249293
0	3070	5878.263020809613	5.870831531867
0	3074	5894.354726610075	16.091705800462
0	3077	5901.600132065993	7.245405455918
0	3080	5901.828948720814	0.228816654821
0	3083	5904.065607627404	2.23665890659
0	3088	5915.337796347523	11.272188720119
0	3090	5933.642784356957	18.304988009434
0	3092	5934.240406471473	0.597622114516
0	3095	5940.516319873956	6.275913402483
0	3097	5945.30583709886	4.789517224904
0	3102	5952.603377976247	7.297540877387
0	3104	5953.001930872692	0.398552896445
0	3107	5959.512707849783	6.510776977091
0	3110	5970.900148323463	11.38744047368
0	3113	5981.985167452161	11.085019128698
0	3115	5982.803732994227	0.818565542066
0	3119	5988.552738387615	5.749005393388
0	3124	6002.116991958677	13.564253571062
0	3126	6011.273766673199	9.156774714522
0	3128	6016.107006053548	4.833239380349
0	3130	6016.530043260235	0.423037206687
0	3133	6022.603575936667	6.073532676432
0	3135	6023.986131598407	1.38255566174
0	3138	6031.817520433701	7.831388835294
0	3143	6037.570367157232	5.752846723531
0	3147	6045.952954738427	8.382587581195
0	3150	6047.392643019184	1.439688280757
0	3152	6047.938774917498	0.546131898314
0	3154	6050.272562688327	2.333787770829
0	3159	6069.445357943739	19.172795255412
0	3162	6076.919647411822	7.474289468083
0	3165	6088.597036255227	11.677388843405
0	3167	6092.1106430815	3.513606826273
0	3169	6093.133415004972	1.022771923472
0	3171	6093.504469851301	0.371054846329
0	3176	6109.859055148754	16.354585297453
0	3180	6128.991019645089	19.131964496335
0	3183	6136.772598987497	7.781579342408
0	3186	6139.220464926957	2.44786593946
0	3188	6165.075937587179	25.855472660222
0	3190	6166.888530283482	1.812592696303
0	3194	6174.31068686082	7.422156577338
0	3196	6177.526204536939	3.215517676119
0	3198	6179.350448896237	1.824244359298
0	3201	6188.106198789837	8.7557498936
0	3203	6191.556746336956	3.450547547119
0	3211	6214.180898651479	22.624152314523
0	3213	6221.562017958121	7.381119306642
0	3217	6237.652297679818	16.090279721697
0	3220	6239.101519928151	1.449222248333
0	3223	6241.787359237273	2.685839309122
0	3225	6245.851586890188	4.064227652915
0	3230	6284.623838567551	38.772251677363
0	3232	6287.927832051085	3.303993483534
0	3234	6298.829210941409	10.901378890324
0	3236	6315.243027375624	16.413816434215
0	3239	6320.636768831248	5.393741455624
0	3241	6321.939282617905	1.302513786657
0	3244	6328.129881088505	6.1905984706
0	3247	6333.21984349829	5.089962409785
0	3249	6335.443041733977	2.223198235687
0	3255	6342.135373280673	6.692331546696
0	3257	6342.355627085247	0.220253804574
0	3259	6343.739123363052	1.383496277805
0	3262	6349.626548480073	5.887425117021
0	3264	6354.794939301262	5.168390821189
0	3270	6364.968136415526	10.173197114264
0	3272	6371.295111025666	6.32697461014
0	3274	6373.451548443739	2.156437418073
0	3276	6375.40061638201	1.949067938271
0	3280	6382.774631512663	7.374015130653
0	3286	6404.825843137348	22.051211624685
0	3289	6409.437102474657	4.611259337309
0	3292	6425.701221006147	16.26411853149
0	3294	6431.036410825664	5.335189819517
0	3298	6438.359874613021	7.323463787357
0	3300	6439.174832785104	0.814958172083
0	3302	6442.245923310279	3.071090525175
0	3304	6445.574404808039	3.32848149776
0	3306	6453.469809924453	7.895405116414
0	3309	6461.343973637299	7.874163712846
0	3313	6468.972154727816	7.628181090517
0	3315	6475.094780239709	6.122625511893
0	3317	6476.187996926893	1.093216687184
0	3320	6487.736100450598	11.548103523705
0	3324	6498.355522867613	10.619422417015
0	3327	6504.071574378749	5.716051511136
0	3334	6522.962074488706	18.890500109957
0	3336	6523.047405426874	0.085330938168
0	3338	6523.933759141719	0.886353714845
0	3340	6525.792970200295	1.859211058576
0	3342	6527.259138900446	1.466168700151
0	3348	6541.435131397908	14.175992497462
0	3350	6542.451404215281	1.016272817373
0	3352	6542.786188981286	0.334784766005
0	3355	6561.598122218072	18.811933236786
0	3357	6561.660423881755	0.062301663683
0	3360	6575.050216040186	13.389792158431
0	3364	6593.34127579962	18.291059759434
0	3367	6595.902654158871	2.561378359251
0	3369	6598.745348458967	2.842694300096
0	3371	6601.502898331972	2.757549873005
0	3373	6601.974012683742	0.47111435177
0	3377	6612.480192995801	10.506180312059
0	3380	6615.052441043059	2.572248047258
0	3385	6622.019539957491	6.967098914432
0	3387	6628.087750660441	6.06821070295
0	3390	6631.853257671599	3.765507011158
0	3393	6637.456395662814	5.603137991215
0	3397	6641.649703511459	4.193307848645
0	3399	6648.215241874534	6.565538363075
0	3401	6650.933283458648	2.718041584114
0	3403	6652.24489261591	1.311609157262
0	3410	6666.826769904959	14.581877289049
0	3412	6668.614511396512	1.787741491553
0	3416	6683.919669137016	15.305157740504
0	3418	6699.094463646635	15.174794509619
0	3421	6706.215258433829	7.120794787194
0	3424	6715.77533971764	9.560081283811
0	3426	6716.343577108979	0.568237391339
0	3428	6723.649084804457	7.305507695478
0	3431	6728.335879529785	4.686794725328
0	3433	6732.019346272336	3.683466742551
0	3435	6733.926312153307	1.906965880971
0	3437	6736.267277555487	2.34096540218
0	3439	6738.924611570775	2.657334015288
0	3445	6752.113441637013	13.188830066238
0	3447	6752.564861138224	0.451419501211
0	3449	6752.835045735624	0.2701845974
0	3450	6755.120216518079	2.285170782455
0	3451	6755.401344538039	0.28112801996
0	3458	6760.018394651211	4.617050113172
0	3462	6760.835178662259	0.816784011048
0	3466	6764.91195016288	4.076771500621
0	3470	6769.057094703206	4.145144540326
0	3471	6770.91704185103	1.859947147824
0	3478	6776.577522951047	5.660481100017
0	3479	6776.763898766898	0.186375815851
0	3489	6785.713890374347	8.949991607449
0	3496	6798.153685962852	12.439795588505
0	3501	6809.155164607744	11.001478644892
0	3506	6813.448280862832	4.293116255088
0	3511	6828.051840196739	14.603559333907
0	3513	6831.864844917731	3.813004720992
0	3515	6834.01116993666	2.146325018929
0	3518	6838.979185073396	4.968015136736
0	3521	6841.896919751621	2.917734678225
0	3523	6842.466282872106	0.569363120485
0	3525	6854.196914100572	11.730631228466
0	3528	6862.273930031677	8.077015931105
0	3531	6875.86910502594	13.595174994263
0	3533	6876.658678302709	0.789573276769
0	3535	6879.095698935503	2.437020632794
0	3539	6888.228418795288	9.132719859785
0	3542	6898.299558283618	10.07113948833
0	3544	6900.41368770837	2.114129424752
0	3547	6904.303608891706	3.889921183336
0	3549	6906.703476546452	2.399867654746
0	3556	6932.729108208986	26.025631662534
0	3558	6941.626613366288	8.897505157302
0	3560	6950.47662663937	8.850013273082
0	3562	6955.216827699287	4.740201059917
0	3565	6958.362438514531	3.145610815244
0	3569	6973.173598839954	14.811160325423
0	3573	6975.842657489695	2.669058649741
0	3575	6982.444709353609	6.602051863914
0	3577	6982.534117684108	0.089408330499
0	3579	6983.053106909022	0.518989224914
0	3584	6999.427564830854	16.374457921832
0	3588	7005.532573087973	6.105008257119
0	3591	7009.172078736661	3.639505648688
0	3593	7012.146993509389	2.974914772728
0	3597	7012.708987392283	0.561993882894
0	3601	7015.879695129388	3.170707737105
0	3605	7028.134634156263	12.254939026875
0	3608	7046.124194888961	17.989560732698
0	3610	7050.296011384515	4.171816495554
0	3612	7051.350780271154	1.054768886639
0	3615	7063.621041627363	12.270261356209
0	3617	7064.014678372761	0.393636745398
0	3621	7076.521245003372	12.506566630611
0	3625	7090.518609051972	13.9973640486
0	3628	7096.905511506109	6.386902454137
0	3630	7100.784907332164	3.879395826055
0	3632	7105.995149766433	5.210242434269
0	3637	7117.131131360798	11.135981594365
0	3640	7121.294759594335	4.163628233537
0	3644	7129.87337999928	8.578620404945
0	3649	7145.854333485261	15.980953485981
0	3652	7151.248400448344	5.394066963083
0	3655	7158.049329356923	6.800928908579
0	3658	7165.867906268926	7.818576912003
0	3660	7186.287474118915	20.419567849989
0	3662	7186.552591861144	0.265117742229
0	3664	7188.460540196046	1.907948334902
0	3666	7192.295797108061	3.835256912015
0	3669	7197.31423425625	5.018437148189
0	3671	7199.107747293418	1.793513037168
0	3674	7210.767838928594	11.660091635176
0	3676	7212.117447868849	1.349608940255
0	3680	7219.469794047251	7.352346178402
0	3682	7220.100427417546	0.630633370295
0	3686	7223.707255286827	3.606827869281
0	3690	7232.856759889195	9.149504602368
0	3694	7244.822371445599	11.965611556404
0	3696	7248.062240955383	3.239869509784
0	3701	7255.116100485482	7.053859530099
0	3704	7273.250967078181	18.134866592699
0	3707	7274.748479132777	1.497512054596
0	3709	7275.01239279378	0.263913661003
0	3711	7275.305936208923	0.293543415143
0	3713	7276.860005544702	1.554069335779
0	3715	7278.505410836681	1.645405291979
0	3717	7281.698105965966	3.192695129285
0	3720	7282.382607115039	0.684501149073
0	3722	7284.864230681993	2.481623566954
0	3725	7285.795421619878	0.931190937885
0	3728	7289.256189505285	3.460767885407
0	3731	7293.753266794173	4.497077288888
0	3733	7297.532498544027	3.779231749854
0	3734	7298.640896147453	1.108397603426
0	3735	7298.747484022963	0.10658787551
0	3747	7309.131318244432	10.383834221469
0	3751	7312.374374227024	3.243055982592
0	3757	7324.306234436969	11.931860209945
0	3760	7325.593049293159	1.28681485619
0	3763	7331.217359482081	5.624310188922
0	3765	7333.663340609838	2.445981127757
0	3767	7335.133221448078	1.46988083824
0	3773	7357.940484319061	22.807262870983
0	3775	7362.755791346175	4.815307027114
0	3777	7363.88823158855	1.132440242375
0	3783	7380.346726573258	16.458494984708
0	3786	7382.285254946929	1.938528373671
0	3789	7386.182160354389	3.89690540746
0	3791	7389.501557395315	3.319397040926
0	3794	7395.573578272453	6.072020877138
0	3796	7396.646613827894	1.073035555441
0	3798	7398.847300463798	2.200686635904
0	3802	7405.461374468347	6.614074004549
0	3805	7415.298093755535	9.836719287188
0	3808	7420.772525754557	5.474431999022
0	3810	7425.025418372664	4.252892618107
0	3813	7427.66598885969	2.640570487026
0	3815	7428.430662391005	0.764673531315
0	3818	7429.876246324635	1.44558393363
0	3820	7429.963208156266	0.086961831631
0	3822	7431.083794771648	1.120586615382
0	3825	7438.702029718206	7.618234946558
0	3828	7440.921886321935	2.219856603729
0	3834	7448.593622129414	7.671735807479
0	3837	7451.30506385866	2.711441729246
0	3839	7451.360011450063	0.054947591403
0	3841	7452.45916703269	1.099155582627
0	3843	7452.956736052047	0.497569019357
0	3848	7458.874901763714	5.918165711667
0	3852	7467.922215724661	9.047313960947
0	3854	7472.678988487873	4.756772763212
0	3856	7472.824900310096	0.145911822223
0	3862	7483.398207403365	10.573307093269
0	3864	7484.184469147902	0.786261744537
0	3868	7486.239836166372	2.05536701847
0	3873	7501.779812809707	15.539976643335
0	3875	7511.024472879381	9.244660069674
0	3878	7514.660643253905	3.636170374524
0	3882	7516.96698103174	2.306337777835
0	3886	7538.592234328345	21.625253296605
0	3889	7546.753382176601	8.161147848256
0	3891	7556.20921087693	9.455828700329
0	3893	7556.905766500339	0.696555623409
0	3896	7559.283541722328	2.377775221989
0	3898	7561.207151491037	1.923609768709
0	3900	7561.611132782057	0.40398129102
0	3902	7563.255352708235	1.644219926178
0	3908	7573.472922914947	10.217570206712
0	3912	7600.406515048166	26.933592133219
0	3914	7629.921758637699	29.515243589533
0	3919	7645.565820571441	15.644061933742
0	3921	7657.059622818885	11.493802247444
0	3924	7664.016243952732	6.956621133847
0	3926	7669.065291111232	5.0490471585
0	3928	7676.186438042334	7.121146931102
0	3932	7679.700178072193	3.513740029859
0	3936	7689.905788942533	10.20561087034
0	3940	7704.019535944757	14.113747002224
0	3943	7707.177814842235	3.158278897478
0	3946	7720.360111338378	13.182296496143
0	3948	7720.370419359238	0.01030802086
0	3950	7720.971670877486	0.601251518248
0	3952	7722.285614364538	1.313943487052
0	3954	7726.655671595066	4.370057230528
0	3956	7728.014537048728	1.358865453662
0	3959	7733.935208135801	5.920671087073
0	3961	7738.571753703019	4.636545567218
0	3966	7749.794460085256	11.222706382237
0	3968	7753.826765257795	4.032305172539
0	3970	7755.814825336376	1.988060078581
0	3973	7757.343560020956	1.52873468458
0	3976	7758.473603438456	1.1300434175
0	3978	7764.614902195466	6.14129875701
0	3980	7768.547586621815	3.932684426349
0	3984	7769.958198912424	1.410612290609
0	3987	7778.768886482681	8.810687570257
0	3990	7783.914104006187	5.145217523506
0	3995	7786.785240525143	2.871136518956
0	3997	7787.091761233263	0.30652070812
0	4002	7809.402671536517	22.310910303254
0	4004	7809.431638167002	0.028966630485
0	4006	7813.78262650972	4.350988342718
0	4008	7814.82478499021	1.04215848049
0	4011	7825.621244407643	10.796459417433
0	4015	7829.501087769769	3.879843362126
0	4017	7830.1940805429	0.692992773131
0	4023	7846.738432233987	16.544351691087
0	4026	7847.608247898198	0.869815664211
0	4028	7849.040143299023	1.431895400825
0	4030	7850.547302779871	1.507159480848
0	4036	7865.074268392434	14.526965612563
0	4038	7865.568236983924	0.49396859149
0	4040	7866.278932091792	0.710695107868
0	4047	7901.882778591564	35.603846499772
0	4049	7902.049706919501	0.166928327937
0	4053	7925.656359385413	23.606652465912
0	4055	7928.178436646263	2.52207726085
0	4057	7932.178045272932	3.999608626669
0	4059	7936.923010723373	4.744965450441
0	4062	7937.79393961738	0.870928894007
0	4065	7946.238822181486	8.444882564106
0	4067	7946.433202466104	0.194380284618
0	4069	7946.880786745742	0.447584279638
0	4071	7953.343468828695	6.462682082953
0	4074	7958.988592860017	5.645124031322
0	4076	7965.133605128563	6.145012268546
0	4080	7969.28606743399	4.152462305427
0	4084	7973.391472945135	4.105405511145
0	4088	7987.73260246712	14.341129521985
0	4090	7994.282660984058	6.550058516938
0	4094	7998.4329407359	4.150279751842
0	4097	8005.837923764987	7.404983029087
0	4101	8017.997343071518	12.159419306531
0	4103	8021.467899140767	3.470556069249
0	4108	8028.063008405247	6.59510926448
0	4111	8033.991980061232	5.928971655985
0	4117	8049.454134035926	15.462153974694
0	4119	8053.075879641704	3.621745605778
0	4121	8060.034904274173	6.959024632469
0	4124	8062.866682224041	2.831777949868
0	4126	8065.325146364815	2.458464140774
0	4128	8069.350104137707	4.024957772892
0	4131	8075.281914626283	5.931810488576
0	4135	8083.566314552303	8.28439992602
0	4139	8086.596268998521	3.029954446218
0	4141	8089.51191616357	2.915647165049
0	4143	8089.663332626564	0.151416462994
0	4145	8092.07893381594	2.415601189376
0	4149	8096.938632075427	4.859698259487
0	4151	8097.512826681384	0.574194605957
0	4155	8125.337917285951	27.825090604567
0	4159	8133.899740308381	8.56182302243
0	4161	8135.732995901694	1.833255593313
0	4166	8144.85787310301	9.124877201316
0	4170	8159.892110644352	15.034237541342
0	4172	8160.001064556338	0.108953911986
0	4175	8163.009319327309	3.008254770971
0	4177	8164.516695581333	1.507376254024
0	4182	8182.283909646125	17.767214064792
0	4185	8187.914011868948	5.630102222823
0	4190	8203.52917054118	15.615158672232
0	4192	8204.118830040303	0.589659499123
0	4194	8205.111093694374	0.992263654071
0	4197	8214.942597382798	9.831503688424
0	4199	8216.808937531995	1.866340149197
0	4202	8221.179552365621	4.370614833626
0	4205	8224.056476187958	2.876923822337
0	4208	8247.222727673767	23.166251485809
0	4210	8252.600769253871	5.378041580104
0	4212	8252.610965743309	0.010196489438
0	4216	8258.132565085785	5.521599342476
0	4218	8258.375138190132	0.242573104347
0	4220	8258.83453781546	0.459399625328
0	4225	8270.339003567842	11.504465752382
0	4228	8283.207260449909	12.868256882067
0	4230	8285.379093493409	2.1718330435
0	4232	8288.380570290719	3.00147679731
0	4236	8295.892692540425	7.512122249706
0	4238	8296.818206990587	0.925514450162
0	4240	8296.925471152711	0.107264162124
0	4242	8300.056656547837	3.131185395126
0	4246	8303.735163464961	3.678506917124
0	4248	8304.176312932276	0.441149467315
0	4252	8306.665919278841	2.489606346565
0	4254	8308.824095711683	2.158176432842
0	4260	8316.497825963302	7.673730251619
0	4262	8318.237970372257	1.740144408955
0	4265	8325.778252381964	7.540282009707
0	4268	8335.209676119352	9.431423737388
0	4271	8338.717151431096	3.507475311744
0	4273	8345.118248771261	6.401097340165
0	4275	8351.949934729208	6.831685957947
0	4279	8359.952002540846	8.002067811638
0	4281	8361.892693957272	1.940691416426
0	4284	8363.295519535126	1.402825577854
0	4287	8367.945518478479	4.649998943353
0	4290	8370.548187396178	2.602668917699
0	4294	8376.505365036995	5.957177640817
0	4299	8387.493373901485	10.98800886449
0	4302	8396.383356622339	8.889982720854
0	4304	8398.008566247857	1.625209625518
0	4307	8401.64911967856	3.640553430703
0	4310	8405.765204952332	4.116085273772
0	4312	8407.302392974958	1.537188022626
0	4314	8411.212808887944	3.910415912986
0	4318	8416.342268522048	5.129459634104
0	4320	8416.967404679117	0.625136157069
0	4322	8417.676799426302	0.709394747185
0	4324	8417.805881984975	0.129082558673
0	4329	8425.614726856841	7.808844871866
0	4332	8433.134094074483	7.519367217642
0	4334	8433.190451743803	0.05635766932
0	4339	8441.606314728942	8.415862985139
0	4341	8441.785655648496	0.179340919554
0	4345	8447.455968543022	5.670312894526
0	4346	8449.430766323462	1.97479778044
0	4347	8450.249530117752	0.81876379429
0	4348	8450.675087115616	0.425556997864
0	4355	8454.577791878052	3.902704762436
0	4356	8457.108409783286	2.530617905234
0	4357	8460.056038102454	2.947628319168
0	4361	8461.04949726488	0.993459162426
0	4362	8463.502354435123	2.452857170243
0	4378	8472.447122183611	8.944767748488
0	4382	8474.631072589555	2.183950405944
0	4383	8474.999416008203	0.368343418648
0	4384	8477.79342118951	2.794005181307
0	4391	8493.360917024457	15.567495834947
0	4395	8496.239509119716	2.878592095259
0	4396	8497.264199892938	1.024690773222
0	4397	8497.949064621617	0.684864728679
0	4398	8499.512713806507	1.56364918489
0	4414	8513.528842701229	14.016128894722
0	4415	8515.569804783613	2.040962082384
0	4416	8515.760276784864	0.190472001251
0	4429	8526.105052291012	10.344775506148
0	4430	8526.962444189977	0.857391898965
0	4437	8532.508676964063	5.546232774086
0	4438	8535.465128107503	2.95645114344
0	4442	8536.49560186435	1.030473756847
0	4446	8538.931052138924	2.435450274574
0	4447	8539.304707477452	0.373655338528
0	4454	8546.929166847607	7.624459370155
0	4455	8553.118212426347	6.18904557874
0	4466	8556.404293283526	3.286080857179
0	4470	8567.810090393358	11.405797109832
0	4472	8569.46286446048	1.652774067122
0	4474	8569.671051466	0.20818700552
0	4479	8573.249167179109	3.578115713109
0	4483	8577.082999804179	3.83383262507
0	4486	8581.470634182496	4.387634378317
0	4488	8584.351684343454	2.881050160958
0	4492	8588.683289011791	4.331604668337
0	4495	8595.987108767481	7.30381975569
0	4500	8601.967455581164	5.980346813683
0	4505	8614.928855504059	12.961399922895
0	4509	8622.450354470433	7.521498966374
0	4512	8640.253279694997	17.802925224564
0	4514	8644.833389655956	4.580109960959
0	4516	8645.019317914351	0.185928258395
0	4518	8665.025810103988	20.006492189637
0	4522	8668.123264079232	3.097453975244
0	4528	8676.339998594539	8.216734515307
0	4530	8677.758281843706	1.418283249167
0	4532	8685.060732361503	7.302450517797
0	4534	8689.439285851387	4.378553489884
0	4538	8699.886052696857	10.44676684547
0	4542	8711.052647503641	11.166594806784
0	4544	8713.586158017752	2.533510514111
0	4546	8723.330132406951	9.743974389199
0	4548	8724.448010369058	1.117877962107
0	4550	8724.80225854006	0.354248171002
0	4553	8727.052721346874	2.250462806814
0	4558	8736.136729476741	9.084008129867
0	4560	8736.573857216918	0.437127740177
0	4563	8738.074210222582	1.500353005664
0	4565	8740.464098124246	2.389887901664
0	4567	8744.228445510812	3.764347386566
0	4571	8750.921276827505	6.692831316693
0	4573	8751.880806763283	0.959529935778
0	4576	8754.520267942241	2.639461178958
0	4581	8765.932246682314	11.411978740073
0	4584	8770.98014553069	5.047898848376
0	4587	8778.436163970494	7.456018439804
0	4589	8778.636065819699	0.199901849205
0	4591	8785.47623430341	6.840168483711
0	4594	8788.458904471621	2.982670168211
0	4603	8816.747966982206	28.289062510585
0	4606	8820.483802800519	3.735835818313
0	4608	8823.152871077727	2.669068277208
0	4610	8823.367824416092	0.214953338365
0	4614	8830.438133543588	7.070309127496
0	4617	8832.512887941941	2.074754398353
0	4619	8839.440752760721	6.92786481878
0	4622	8845.421070486921	5.9803177262
0	4625	8851.196248670662	5.775178183741
0	4627	8858.163274308866	6.967025638204
0	4632	8869.074296800919	10.911022492053
0	4635	8873.033488381369	3.95919158045
0	4637	8873.161032613161	0.127544231792
0	4640	8875.792856577425	2.631823964264
0	4643	8889.621204382463	13.828347805038
0	4646	8899.925323154113	10.30411877165
0	4648	8901.055143847964	1.129820693851
0	4650	8903.625484257906	2.570340409942
0	4653	8917.131430213916	13.50594595601
0	4656	8920.382752777468	3.251322563552
0	4659	8926.42400666386	6.041253886392
0	4662	8926.814669710725	0.390663046865
0	4666	8929.800704374836	2.986034664111
0	4670	8930.528312667802	0.727608292966
0	4672	8943.436723804331	12.908411136529
0	4674	8944.278217130635	0.841493326304
0	4679	8956.252946153513	11.974729022878
0	4681	8962.787619460571	6.534673307058
0	4683	8964.859417636216	2.071798175645
0	4685	8965.456300683344	0.596883047128
0	4690	8981.821654777868	16.365354094524
0	4692	8981.981515763494	0.159860985626
0	4696	8986.652923363883	4.671407600389
0	4700	8997.004534881814	10.351611517931
0	4702	8998.613909525351	1.609374643537
0	4704	9003.52322998174	4.909320456389
0	4710	9010.200883654437	6.677653672697
0	4714	9026.612140029768	16.411256375331
0	4718	9039.800004211735	13.187864181967
0	4721	9055.813440432699	16.013436220964
0	4723	9056.437945291245	0.624504858546
0	4725	9060.857391397696	4.419446106451
0	4728	9063.436769871144	2.579378473448
0	4731	9065.163315435612	1.726545564468
0	4733	9071.313442108342	6.15012667273
0	4735	9071.359723249168	0.046281140826
0	4738	9082.180907073227	10.821183824059
0	4742	9096.147411055294	13.966503982067
0	4745	9097.332813273364	1.18540221807
0	4747	9100.673387117122	3.340573843758
0	4750	9107.782162389861	7.108775272739
0	4754	9113.920552318323	6.138389928462
0	4757	9116.752816379465	2.832264061142
0	4760	9120.608214587773	3.855398208308
0	4763	9126.531136358465	5.922921770692
0	4767	9132.412096597473	5.880960239008
0	4771	9153.613151155926	21.201054558453
0	4773	9155.65476377968	2.041612623754
0	4775	9155.967827567274	0.313063787594
0	4779	9162.064401963523	6.096574396249
0	4782	9173.917494439148	11.853092475625
0	4787	9194.138261952365	20.220767513217
0	4789	9196.652474550607	2.514212598242
0	4792	9198.275416160101	1.622941609494
0	4795	9199.428935887535	1.153519727434
0	4798	9203.860882741008	4.431946853473
0	4800	9206.416854091734	2.555971350726
0	4802	9210.585779422065	4.168925330331
0	4804	9214.471028047427	3.885248625362
0	4808	9227.445881410708	12.974853363281
0	4812	9234.712904095992	7.267022685284
0	4815	9249.447701175407	14.734797079415
0	4817	9249.917912076713	0.470210901306
0	4821	9264.365886470155	14.447974393442
0	4823	9265.129094193883	0.763207723728
0	4825	9267.322531742126	2.193437548243
0	4830	9275.670834071978	8.348302329852
0	4833	9290.849921442681	15.179087370703
0	4835	9293.043000760741	2.19307931806
0	4838	9297.239650311278	4.196649550537
0	4842	9300.151966336653	2.912316025375
0	4844	9306.123860582606	5.971894245953
0	4848	9311.796090216648	5.672229634042
0	4850	9311.840916575542	0.044826358894
0	4852	9311.982654703432	0.14173812789
0	4854	9315.264837475207	3.282182771775
0	4857	9327.286967106514	12.022129631307
0	4859	9331.22276483598	3.935797729466
0	4862	9333.688308692014	2.465543856034
0	4866	9342.210614270597	8.522305578583
0	4871	9378.379610478586	36.168996207989
0	4873	9381.719863744089	3.340253265503
0	4877	9400.559552887434	18.839689143345
0	4879	9401.652699949794	1.09314706236
0	4882	9414.975840653391	13.323140703597
0	4886	9419.682519348813	4.706678695422
0	4888	9419.874782970939	0.192263622126
0	4890	9423.056579431294	3.181796460355
0	4893	9428.285103026825	5.228523595531
0	4896	9435.34885413925	7.063751112425
0	4903	9457.907872554373	22.559018415123
0	4905	9458.091548835354	0.183676280981
0	4908	9465.488707169258	7.397158333904
0	4910	9470.848952821861	5.360245652603
0	4912	9471.650545055244	0.801592233383
0	4915	9476.10124921964	4.450704164396
0	4919	9499.827427776603	23.726178556963
0	4921	9504.334762188855	4.507334412252
0	4923	9505.448143121662	1.113380932807
0	4926	9509.644538581176	4.196395459514
0	4931	9539.323939474068	29.679400892892
0	4934	9543.885483871821	4.561544397753
0	4936	9544.112798119076	0.227314247255
0	4938	9545.249073543763	1.136275424687
0	4940	9549.770455048255	4.521381504492
0	4947	9562.567074360096	12.796619311841
0	4949	9563.390065663629	0.822991303533
0	4951	9564.248559550014	0.858493886385
0	4954	9565.926059075	1.677499524986
0	4956	9566.486804210249	0.560745135249
0	4958	9567.307325737564	0.820521527315
0	4960	9570.140295976354	2.83297023879
0	4963	9576.144526489357	6.004230513003
0	4965	9579.090200744867	2.94567425551
0	4972	9608.439547757758	29.349347012891
0	4976	9618.422727466198	9.98317970844
0	4978	9629.495736454105	11.073008987907
0	4981	9633.526852470346	4.031116016241
0	4984	9635.575067634796	2.04821516445
0	4986	9636.731859394182	1.156791759386
0	4990	9645.551647627909	8.819788233727
0	4996	9653.443981346595	7.892333718686
0	4998	9653.966667928685	0.52268658209
0	5000	9656.772636221076	2.805968292391
0	5004	9663.311897313517	6.539261092441
0	5007	9665.342384073336	2.030486759819
0	5009	9672.554224449264	7.211840375928
0	5013	9686.137967492886	13.583743043622
0	5015	9692.872811965558	6.734844472672
0	5017	9696.326247577572	3.453435612014
0	5020	9701.872839747873	5.546592170301
0	5022	9702.254955494988	0.382115747115
0	5027	9714.191919339512	11.936963844524
0	5030	9717.721084264611	3.529164925099
0	5032	9723.258090523339	5.537006258728
0	5034	9724.831780662334	1.573690138995
0	5038	9735.854134628669	11.022353966335
0	5041	9743.150641518938	7.296506890269
0	5046	9750.88825736225	7.737615843312
0	5048	9754.022039831542	3.133782469292
0	5050	9754.197882395843	0.175842564301
0	5056	9766.008261482617	11.810379086774
0	5058	9768.550889587363	2.542628104746
0	5060	9769.719899063496	1.169009476133
0	5063	9777.958122307732	8.238223244236
0	5065	9779.143826377865	1.185704070133
0	5068	9782.758900964866	3.615074587001
0	5070	9784.001661379521	1.242760414655
0	5072	9784.014376138348	0.012714758827
0	5079	9806.611483983747	22.597107845399
0	5081	9809.267314260695	2.655830276948
0	5083	9810.345324807399	1.078010546704
0	5087	9816.000765996947	5.655441189548
0	5089	9816.473136843986	0.472370847039
0	5092	9823.239330864376	6.76619402039
0	5094	9824.38936437288	1.150033508504
0	5100	9850.374979723641	25.985615350761
0	5105	9866.909927663254	16.534947939613
0	5107	9880.438056997061	13.528129333807
0	5110	9884.862601039253	4.424544042192
0	5113	9905.360410392802	20.497809353549
0	5116	9913.03994042696	7.679530034158
0	5118	9914.811693257632	1.771752830672
0	5123	9942.325926827911	27.514233570279
0	5125	9943.704901986411	1.3789751585
0	5129	9949.629117654405	5.924215667994
0	5133	9962.724163877646	13.095046223241
0	5135	9965.827508224572	3.103344346926
0	5137	9976.103020886154	10.275512661582
0	5139	9976.603597282619	0.500576396465
0	5142	9989.423347539514	12.819750256895
0	5144	9990.280746671248	0.857399131734
0	5148	9995.356713565947	5.075966894699
0	5151	9997.767861267213	2.411147701266
0	5153	10003.417933752763	5.65007248555
0	5155	10005.537677181682	2.119743428919
0	5158	10036.249488122438	30.711810940756
0	5161	10045.339149235036	9.089661112598
0	5163	10048.573812601781	3.234663366745
0	5169	10066.159077215414	17.585264613633
0	5171	10070.532107836522	4.373030621108
0	5173	10072.637474554771	2.105366718249
0	5177	10077.150288222918	4.512813668147
0	5182	10087.511708691847	10.361420468929
0	5184	10087.772539955785	0.260831263938
0	5187	10102.922302579755	15.14976262397
0	5189	10108.423129674728	5.500827094973
0	5193	10120.998136951515	12.575007276787
0	5196	10122.66256579346	1.664428841945
0	5198	10122.699546575454	0.036980781994
0	5200	10123.545312858057	0.845766282603
0	5203	10129.320098158615	5.774785300558
0	5205	10129.69064468822	0.370546529605
0	5207	10130.493283971959	0.802639283739
0	5209	10132.401069636198	1.907785664239
0	5213	10140.785775410386	8.384705774188
0	5216	10145.432147058578	4.646371648192
0	5219	10154.448953392807	9.016806334229
0	5221	10154.608064090583	0.159110697776
0	5224	10157.90673898928	3.298674898697
0	5226	10158.085746522527	0.179007533247
0	5230	10163.562532073426	5.476785550899
0	5236	10177.533610942715	13.971078869289
0	5240	10185.68657169224	8.152960749525
0	5242	10186.145100816099	0.458529123859
0	5244	10190.507587013035	4.362486196936
0	5247	10197.28409673204	6.776509719005
0	5249	10198.648968705346	1.364871973306
0	5251	10201.411563536698	2.762594831352
0	5254	10203.173973653335	1.762410116637
0	5256	10203.597099156845	0.42312550351
0	5259	10205.715945561475	2.11884640463
0	5261	10206.352443774364	0.636498212889
0	5262	10210.478950513184	4.12650673882
0	5263	10210.641260093784	0.1623095806
0	5270	10212.675224898462	2.033964804678
0	5271	10212.768756790478	0.093531892016
0	5272	10220.636101500121	7.867344709643
0	5287	10228.614869432789	7.978767932668
0	5289	10233.145871446439	4.53100201365
0	5291	10233.674767136707	0.528895690268
0	5301	10254.413194376348	20.738427239641
0	5304	10261.742036929915	7.328842553567
0	5306	10263.678147990519	1.936111060604
0	5309	10266.033166117498	2.355018126979
0	5311	10267.419909814437	1.386743696939
0	5315	10283.287697215726	15.867787401289
0	5317	10287.268344506098	3.980647290372
0	5320	10299.043411692115	11.775067186017
0	5325	10307.340555034438	8.297143342323
0	5327	10308.768997938294	1.428442903856
0	5330	10311.296131317632	2.527133379338
0	5333	10317.316168018952	6.02003670132
0	5338	10326.164217839808	8.848049820856
0	5341	10337.38779947877	11.223581638962
0	5343	10338.700770577226	1.312971098456
0	5347	10348.7444234195	10.043652842274
0	5349	10350.638152110301	1.893728690801
0	5353	10356.6604450235	6.022292913199
0	5355	10357.460650149216	0.800205125716
0	5357	10357.753328334758	0.292678185542
0	5360	10363.178957431539	5.425629096781
0	5364	10371.152476536717	7.973519105178
0	5366	10382.51300389277	11.360527356053
0	5368	10391.943853604381	9.430849711611
0	5371	10398.604959202794	6.661105598413
0	5375	10405.75153304889	7.146573846096
0	5377	10406.062192607624	0.310659558734
0	5379	10409.906573159791	3.844380552167
0	5381	10412.642179645534	2.735606485743
0	5383	10414.703964992498	2.061785346964
0	5389	10422.560746446004	7.856781453506
0	5391	10423.850673319324	1.28992687332
0	5393	10425.864143668361	2.013470349037
0	5396	10429.682600446097	3.818456777736
0	5399	10433.633829452281	3.951229006184
0	5404	10448.926580958839	15.292751506558
0	5406	10449.710726375293	0.784145416454
0	5408	10455.058364913063	5.34763853777
0	5412	10464.436591309415	9.378226396352
0	5414	10466.920272753833	2.483681444418
0	5416	10467.244589486077	0.324316732244
0	5421	10476.715619959262	9.471030473185
0	5423	10476.792347464497	0.076727505235
0	5427	10483.40509066082	6.612743196323
0	5429	10484.596968720308	1.191878059488
0	5434	10491.020776784268	6.42380806396
0	5436	10495.512494158558	4.49171737429
0	5439	10498.896187405022	3.383693246464
0	5444	10509.237500519191	10.341313114169
0	5446	10510.258324840712	1.020824321521
0	5450	10527.503993356823	17.245668516111
0	5453	10530.347047196951	2.843053840128
0	5455	10534.85632131294	4.509274115989
0	5459	10539.571699588023	4.715378275083
0	5464	10553.593631294177	14.021931706154
0	5466	10555.89137769055	2.297746396373
0	5468	10560.943044773476	5.051667082926
0	5470	10571.745781078407	10.802736304931
0	5472	10574.332229024099	2.586447945692
0	5477	10581.495379139843	7.163150115744
0	5480	10589.057402191186	7.562023051343
0	5482	10594.001704487138	4.944302295952
0	5488	10608.627835268968	14.62613078183
0	5490	10619.325962930649	10.698127661681
0	5495	10633.927777272792	14.601814342143
0	5499	10660.337853857854	26.410076585062
0	5501	10663.162519045983	2.824665188129
0	5503	10664.162913109407	1.000394063424
0	5505	10666.624868858132	2.461955748725
0	5507	10668.058700223527	1.433831365395
0	5512	10682.833189824321	14.774489600794
0	5515	10695.219554362508	12.386364538187
0	5517	10700.296518047202	5.076963684694
0	5520	10708.338829751555	8.042311704353
0	5522	10712.269186418643	3.930356667088
0	5525	10715.850892547039	3.581706128396
0	5527	10717.059030681334	1.208138134295
0	5531	10722.80818596291	5.749155281576
0	5534	10726.283952221899	3.475766258989
0	5536	10728.716179316006	2.432227094107
0	5539	10734.704518855356	5.98833953935
0	5541	10735.665892212827	0.961373357471
0	5544	10737.907402716406	2.241510503579
0	5547	10739.469564984207	1.562162267801
0	5549	10739.674857793185	0.205292808978
0	5554	10749.850518927674	10.175661134489
0	5556	10751.236418707191	1.385899779517
0	5558	10754.050275674264	2.813856967073
0	5560	10757.771827584512	3.721551910248
0	5563	10762.291565499517	4.519737915005
0	5565	10762.498211461885	0.206645962368
0	5566	10762.700327150872	0.202115688987
0	5575	10769.202163337262	6.50183618639
0	5580	10780.921559343296	11.719396006034
0	5583	10789.955098338772	9.033538995476
0	5587	10794.529342183677	4.574243844905
0	5589	10794.949935397929	0.420593214252
0	5591	10804.828076429551	9.878141031622
0	5593	10814.742822226514	9.914745796963
0	5598	10822.810887662498	8.068065435984
0	5600	10823.072702196973	0.261814534475
0	5604	10832.63661709975	9.563914902777
0	5610	10876.149568238903	43.512951139153
0	5612	10877.702620976327	1.553052737424
0	5615	10880.745635889361	3.043014913034
0	5618	10887.697447563288	6.951811673927
0	5620	10889.149988005719	1.452540442431
0	5622	10894.238122880279	5.08813487456
0	5624	10895.352907528495	1.114784648216
0	5626	10896.481575957447	1.128668428952
0	5628	10897.1224657954	0.640889837953
0	5631	10897.968123768569	0.845657973169
0	5633	10901.052059238622	3.083935470053
0	5642	10905.588929628297	4.536870389675
0	5645	10912.663174185833	7.074244557536
0	5650	10929.285626912122	16.622452726289
0	5652	10929.767829960033	0.482203047911
0	5655	10936.057231478412	6.289401518379
0	5658	10938.467354203919	2.410122725507
0	5660	10938.968428581522	0.501074377603
0	5662	10943.355187703198	4.386759121676
0	5664	10945.027407202241	1.672219499043
0	5670	10959.437244841885	14.409837639644
0	5672	10968.235725632804	8.798480790919
0	5674	10975.770020404375	7.534294771571
0	5677	10981.24006419351	5.470043789135
0	5679	10983.719309393515	2.479245200005
0	5681	10989.690121098157	5.970811704642
0	5684	10993.884986877311	4.194865779154
0	5689	11008.219774387483	14.334787510172
0	5691	11011.955285812666	3.735511425183
0	5696	11029.113486488846	17.15820067618
0	5700	11035.986929987367	6.873443498521
0	5705	11039.638102936797	3.65117294943
0	5707	11040.848597942172	1.210495005375
0	5710	11050.841818900699	9.993220958527
0	5712	11052.655375425332	1.813556524633
0	5714	11053.459536039129	0.804160613797
0	5716	11059.133071943576	5.673535904447
0	5719	11062.884088102079	3.751016158503
0	5724	11071.041007603023	8.156919500944
0	5727	11075.760342424014	4.719334820991
0	5730	11080.019291358527	4.258948934513
0	5732	11081.094287726994	1.074996368467
0	5734	11085.227726857703	4.133439130709
0	5736	11086.467114095072	1.239387237369
0	5738	11086.726985077143	0.259870982071
0	5740	11089.541632209335	2.814647132192
0	5746	11112.595535068341	23.053902859006
0	5748	11112.929760479362	0.334225411021
0	5750	11121.290794341457	8.361033862095
0	5754	11124.183178102577	2.89238376112
0	5760	11134.510954499509	10.327776396932
0	5762	11135.994968344631	1.484013845122
0	5764	11137.327557060675	1.332588716044
0	5771	11153.476148894587	16.148591833912
0	5774	11167.769954587658	14.293805693071
0	5776	11171.031215087072	3.261260499414
0	5780	11174.491345686563	3.460130599491
0	5784	11179.891594319562	5.400248632999
0	5786	11180.273203610848	0.381609291286
0	5790	11189.543647131841	9.270443520993
0	5793	11200.40035186508	10.856704733239
0	5795	11200.780804237258	0.380452372178
0	5798	11203.659696554664	2.878892317406
0	5800	11212.988945187075	9.329248632411
0	5802	11213.35539638862	0.366451201545
0	5804	11219.61462709292	6.2592307043
0	5807	11226.978085801421	7.363458708501
0	5809	11230.052342190776	3.074256389355
0	5811	11231.017627324356	0.96528513358
0	5813	11231.285455948979	0.267828624623
0	5817	11238.848303181548	7.562847232569
0	5819	11241.429231145977	2.580927964429
0	5821	11243.251331990003	1.822100844026
0	5823	11245.236355265132	1.985023275129
0	5827	11246.3742560366	1.137900771468
0	5828	11246.906759720593	0.532503683993
0	5832	11253.37759709324	6.470837372647
0	5836	11258.795438091188	5.417840997948
0	5844	11268.403842011925	9.608403920737
0	5848	11270.933819290107	2.529977278182
0	5854	11277.252746500491	6.318927210384
0	5857	11291.202429381143	13.949682880652
0	5860	11297.337043153955	6.134613772812
0	5862	11297.890956778286	0.553913624331
0	5866	11304.393004740193	6.502047961907
0	5869	11311.821061730019	7.428056989826
0	5871	11311.916728636834	0.095666906815
0	5873	11314.26982869964	2.353100062806
0	5876	11317.945992809148	3.676164109508
0	5880	11328.445985172154	10.499992363006
0	5882	11331.429934231761	2.983949059607
0	5886	11337.354428357687	5.924494125926
0	5888	11338.542815103775	1.188386746088
0	5890	11345.13355241279	6.590737309015
0	5898	11358.476870331398	13.343317918608
0	5900	11363.33119501124	4.854324679842
0	5904	11376.53042721343	13.19923220219
0	5907	11380.34453024689	3.81410303346
0	5910	11386.409814883528	6.065284636638
0	5912	11391.485434507247	5.075619623719
0	5914	11393.043436191658	1.558001684411
0	5916	11404.592997056475	11.549560864817
0	5919	11411.26194927593	6.668952219455
0	5922	11415.443768550628	4.181819274698
0	5926	11429.331956525744	13.888187975116
0	5928	11433.269220929954	3.93726440421
0	5931	11439.963646669309	6.694425739355
0	5936	11451.866379058094	11.902732388785
0	5938	11453.203136726576	1.336757668482
0	5940	11456.598104977893	3.394968251317
0	5943	11458.980063388714	2.381958410821
0	5946	11464.933055693881	5.952992305167
0	5950	11470.231126212738	5.298070518857
0	5953	11475.321382190728	5.09025597799
0	5955	11476.110009170339	0.788626979611
0	5959	11488.006779129384	11.896769959045
0	5963	11496.182864277807	8.176085148423
0	5969	11516.242091252859	20.059226975052
0	5973	11535.813825611561	19.571734358702
0	5975	11537.001933810991	1.18810819943
0	5977	11537.843688280057	0.841754469066
0	5979	11539.99512226364	2.151433983583
0	5981	11540.392737268413	0.397615004773
0	5986	11555.560788487473	15.16805121906
0	5988	11559.061318875983	3.50053038851
0	5990	11562.890184076187	3.828865200204
0	5992	11565.548259592502	2.658075516315
0	5994	11565.837652656788	0.289393064286
0	5998	11570.348310646546	4.510657989758
0	6004	11580.146382403728	9.798071757182
0	6006	11590.789520276982	10.643137873254
0	6009	11595.449181763098	4.659661486116
0	6011	11596.302384161804	0.853202398706
0	6015	11611.567758149212	15.265373987408
0	6017	11612.686853435265	1.119095286053
0	6020	11614.745247619458	2.058394184193
0	6024	11620.308647257264	5.563399637806
0	6026	11620.462016116707	0.153368859443
0	6029	11622.754768307871	2.292752191164
0	6032	11627.415898153207	4.661129845336
0	6034	11629.182817371789	1.766919218582
0	6037	11635.819417269317	6.636599897528
0	6039	11638.412727388826	2.593310119509
0	6042	11641.075824279209	2.663096890383
0	6044	11642.611389164554	1.535564885345
0	6047	11648.897095414992	6.285706250438
0	6049	11651.388410864941	2.491315449949
0	6053	11657.580176566772	6.191765701831
0	6055	11659.133839448142	1.55366288137
[...]
4	20040	39005.462041768383	6
4	20043	39007.701014346438	3
4	20050	39018.914770839717	7
4	20051	39021.742650380416	4
4	20052	39025.763287311306	1
4	20053	39033.240827898698	6
4	20056	39042.223801635495	3
4	20057	39042.797235127401	0
4	20058	39047.486849084261	1
4	20065	39073.892611830006	3
4	20068	39078.127217792569	0
4	20071	39081.657962596944	5
4	20072	39083.17425223709	0
4	20073	39083.832210635262	1
4	20074	39087.848757284817	3
4	20083	39105.932753803533	2
4	20086	39108.056699915441	1
4	20091	39109.275393633905	4
4	20092	39116.647097384531	3
4	20093	39117.079993283361	5
4	20094	39119.974414431737	0
4	20097	39125.241024988714	1
4	20100	39135.129897938162	2
4	20105	39150.279446806943	3
4	20106	39155.778360450054	1
4	20109	39159.331320237479	2
4	20116	39170.598272359209	2
4	20117	39176.353721551357	3
4	20120	39184.556116365897	2
4	20125	39190.458543861642	3
4	20126	39194.867799308254	1
4	20127	39196.310616073195	4
4	20130	39200.428377018951	0
4	20131	39206.406329506199	2
4	20134	39208.337080595738	0
4	20139	39214.822270928975	1
4	20140	39215.795085635819	0
4	20143	39223.363337379686	2
4	20146	39224.146877421	0
4	20151	39233.469258397112	2
4	20154	39236.718434801838	2
4	20157	39242.922003828881	0
4	20160	39255.459238899342	0
4	20169	39277.241284604522	2
4	20170	39277.356560987946	3
4	20171	39279.691611143316	1
4	20174	39302.028969924612	0
4	20177	39302.623916195004	1
4	20180	39314.933535625314	5
4	20185	39323.53997184792	1
4	20186	39323.78496741544	2
4	20187	39328.178896319735	3
4	20192	39336.666933701147	4
4	20195	39344.577527332513	3
4	20200	39348.82317317928	4
4	20201	39349.073919171521	0
4	20202	39354.006943626005	2
4	20207	39357.866067793872	0
4	20210	39368.362596588767	1
4	20215	39371.851598569259	2
4	20216	39374.986062448063	0
4	20223	39384.541999762421	0
4	20224	39385.167519981367	5
4	20225	39388.427184873253	4
4	20226	39412.248814954391	3
4	20235	39440.331839303078	4
4	20236	39441.754393096665	1
4	20237	39449.603646445177	0
4	20238	39452.011963581488	3
4	20249	39468.677613658473	6
4	20259	39479.753318218957	2
4	20262	39480.780871952319	9
4	20266	39486.28253876653	0
4	20271	39489.177916213658	6
4	20274	39495.799497307199	3
4	20278	39503.802951553562	5
4	20281	39506.204075191707	3
4	20284	39509.276869370965	2
4	20285	39510.549913478001	4
4	20288	39518.061709867505	8
4	20289	39524.533391067736	7
4	20290	39526.289328434455	1
4	20293	39531.659853324882	2
4	20296	39536.788109280114	1
4	20297	39537.878057565523	2
4	20308	39547.671675057131	8
4	20309	39548.132071511952	6
4	20310	39549.471519129118	1
4	20311	39551.55594433014	2
4	20312	39553.14007652365	9
4	20315	39565.224969950696	5
4	20316	39565.684988281645	3
4	20321	39571.545480213651	2
4	20322	39571.715139375503	7
4	20327	39582.56241273907	2
4	20332	39592.627641910407	6
4	20333	39597.851777716405	2
4	20334	39601.451250035959	0
4	20335	39603.644327780752	3
4	20336	39606.385906008013	1
4	20339	39611.928752471836	0
4	20346	39623.032129259383	5
4	20349	39625.903642565488	1
4	20356	39629.485288068354	5
4	20357	39629.648569122232	6
4	20364	39636.871076413128	5
4	20365	39637.649167315686	0
4	20368	39645.725896562313	1
4	20369	39651.240212600468	4
4	20370	39652.513024305856	3
4	20373	39657.484688631061	0
4	20380	39676.671081945101	6
4	20385	39688.147218090895	1
4	20386	39688.651730082014	7
4	20389	39692.082459158656	2
4	20394	39695.798880968556	2
4	20395	39696.040448029148	0
4	20396	39696.148486590699	6
4	20401	39703.072314790616	2
4	20402	39703.605692663572	3
4	20403	39706.845536494876	0
4	20408	39711.56794518837	1
4	20411	39714.087959784581	5
4	20414	39716.488754758045	3
4	20417	39741.548734562674	4
4	20418	39742.408677112732	1
4	20419	39742.898107226341	3
4	20434	39758.324257461427	8
4	20437	39764.495916492261	1
4	20440	39766.939756730762	6
4	20441	39767.31122735318	9
4	20442	39768.901601846757	5
4	20443	39769.886809983209	7
4	20444	39770.854337422293	3
4	20445	39772.16288527172	4
4	20446	39773.495969288273	1
4	20449	39775.623867257335	0
4	20450	39782.077770867782	2
4	20453	39783.775774087156	1
4	20456	39786.678188611755	1
4	20465	39813.630629628863	1
4	20466	39817.924138216638	8
4	20473	39835.087373641278	3
4	20474	39838.446972750308	4
4	20475	39843.626215603774	6
4	20476	39852.333142963887	1
4	20483	39859.391246533822	5
4	20484	39860.619811906424	0
4	20487	39865.992785289993	2
4	20488	39874.115822834737	1
4	20489	39876.832825199369	4
4	20496	39888.324100138675	1
4	20499	39899.411432245549	3
4	20500	39908.343834768713	2
4	20501	39913.484600881671	1
4	20508	39926.372935964686	3
4	20519	39939.897264308416	7
4	20522	39942.802055476402	3
4	20523	39943.604439201213	4
4	20528	39953.971355027802	6
4	20531	39959.814063936451	2
4	20536	39963.488952976444	0
4	20537	39965.15370209394	4
4	20540	39969.438907877688	7
4	20543	39971.930082899889	2
4	20548	39976.648748971555	4
4	20549	39977.168407007014	1
4	20550	39977.235514726037	3
4	20555	39987.25716522407	2
4	20560	39991.614991706706	2
4	20564	40003.230901981571	4
4	20569	40009.910527122449	2
4	20574	40010.814527604506	4
4	20579	40018.556840144231	4
4	20584	40023.612300373954	9
4	20587	40031.889181361237	8
4	20590	40033.200124170359	7
4	20593	40033.251906393025	3
4	20597	40038.299861513656	1
4	20600	40042.741115892876	7
4	20603	40043.196338250876	0
4	20604	40046.669453741375	8
4	20605	40052.855803750229	1
4	20606	40053.841949588043	3
4	20607	40053.972848527755	6
4	20608	40054.049949822696	7
4	20611	40060.452665865246	5
4	20616	40068.295126107192	0
4	20617	40069.505368874125	4
4	20618	40070.77985420201	3
4	20621	40084.251998699296	2
4	20624	40088.5649924768	0
4	20625	40098.287011552966	2
4	20628	40110.24912894442	9
4	20631	40116.79541653327	2
4	20634	40122.856828775788	0
4	20637	40154.262820964592	2
4	20638	40160.561419317923	0
4	20641	40162.484635548057	0
4	20644	40171.858024685046	0
4	20647	40177.568914256972	1
4	20658	40193.215059537321	1
4	20659	40193.592340257895	2
4	20660	40196.255569507667	3
4	20661	40198.064642524223	0
4	20668	40212.675277959628	5
4	20671	40221.674419048132	2
4	20672	40223.929323558198	0
4	20673	40226.588703634797	3
4	20676	40232.956579536779	1
4	20679	40255.411393506008	0
4	20684	40265.30306491651	2
4	20685	40267.487555950288	0
4	20690	40285.766700492924	1
4	20693	40286.938191982891	4
4	20696	40301.0626037158	1
4	20699	40307.729283608994	3
4	20700	40313.076084825354	1
4	20707	40332.499686808939	4
4	20710	40334.869097818702	3
4	20713	40339.818475934441	3
4	20720	40355.874796875675	1
4	20721	40358.013701736232	0
4	20728	40367.297344671987	2
4	20729	40370.397494052358	3
4	20730	40372.452176248477	6
4	20731	40377.280397841895	0
4	20736	40382.433196467479	4
4	20739	40391.72921892927	3
4	20742	40401.41726268708	0
4	20747	40412.306261611483	3
4	20754	40416.66150257793	7
4	20755	40419.872389104397	6
4	20756	40426.912063610424	1
4	20761	40434.635930492121	0
4	20766	40437.434370034578	8
4	20771	40442.471090060347	3
4	20772	40443.027148996577	4
4	20773	40444.205043487734	5
4	20776	40448.693382923442	3
4	20777	40448.880387411685	2
4	20778	40457.63300658273	7
4	20781	40466.670070966226	1
4	20782	40470.625975968481	9
4	20785	40473.951412506237	0
4	20786	40476.114732335536	8
4	20789	40481.541382337732	2
4	20792	40495.294451311329	1
4	20797	40511.989982231222	6
4	20802	40516.170202700647	3
4	20803	40518.395052581375	5
4	20804	40521.507798326804	2
4	20809	40526.716115940788	4
4	20814	40547.614158232065	1
4	20817	40551.929751823123	1
4	20820	40555.508618271038	4
4	20825	40564.078975839651	0
4	20830	40571.95009600464	3
4	20833	40580.22290329948	2
4	20836	40585.305157618576	4
4	20839	40591.615200864291	6
4	20842	40595.398895117323	5
4	20843	40595.57523545237	1
4	20844	40596.277383790754	7
4	20845	40598.691924213475	0
4	20848	40599.594828275699	4
4	20849	40602.455369083143	2
4	20850	40602.573800413275	6
4	20859	40615.580147394106	4
4	20860	40615.652032742308	0
4	20861	40616.211226579862	3
4	20864	40622.486167097565	5
4	20869	40630.309067941819	3
4	20874	40647.913263580809	0
4	20879	40656.398859386237	5
4	20884	40660.519156263179	0
4	20885	40669.172092654149	6
4	20886	40671.644172645874	3
4	20887	40674.592621624022	5
4	20890	40680.910734622223	1
4	20893	40688.030145032891	7
4	20896	40688.738913152116	3
4	20903	40696.790646365422	6
4	20906	40699.819381903013	2
4	20907	40708.964797101287	4
4	20912	40712.821851863026	0
4	20913	40715.421443375449	5
4	20914	40719.064128643347	3
4	20917	40721.171138415177	0
4	20932	40738.77980244453	1
4	20935	40741.063997064209	2
4	20941	40748.710143460645	1
4	20945	40754.551916604157	4
4	20949	40764.955676520591	3
4	20952	40768.466108742544	2
4	20955	40769.996817787931	5
4	20958	40771.258808337385	1
4	20959	40772.457057999098	9
4	20962	40773.414118436341	3
4	20963	40778.713642991703	2
4	20966	40796.865280426539	2
4	20974	40802.766648541757	1
4	20979	40809.508591290272	0
4	20982	40810.876282116477	9
4	20985	40812.028073580827	0
4	20986	40821.203461784103	1
4	20989	40824.937194708643	7
4	20992	40825.123844477011	6
4	20993	40827.525844287916	5
4	20994	40829.335998146267	2
4	20995	40834.838734145914	4
4	21002	40842.347967632901	8
4	21005	40854.273263090392	6
4	21006	40857.66438768365	1
4	21007	40858.006233442039	9
4	21008	40860.936205763855	3
4	21013	40876.40843004935	0
4	21014	40876.923973645317	4
4	21019	40881.594066346072	3
4	21024	40886.063899105607	1
4	21025	40889.077159478329	3
4	21032	40897.456933189828	2
4	21035	40898.613439718848	4
4	21036	40899.78382161018	6
4	21037	40902.38833879216	3
4	21040	40913.102342042337	2
4	21041	40920.396281394826	1
4	21042	40924.87730904551	7
4	21043	40932.586264910922	5
4	21052	40939.923389210521	4
4	21053	40945.278605831156	1
4	21054	40951.464032115617	0
4	21055	40951.634007703169	2
4	21058	40963.1403030055	3
4	21061	40966.51458925615	1
4	21062	40968.287061409406	0
4	21065	40977.086481615359	0
4	21068	40978.072311600888	5
4	21073	40998.232875816298	0
4	21078	41020.619333153798	0
4	21079	41024.613862600626	3
4	21084	41034.08667817986	1
4	21089	41042.834597478606	2
4	21090	41044.468740197581	1
4	21091	41045.116951823182	3
4	21096	41053.200676490422	4
4	21101	41066.879827379895	3
4	21102	41075.892235720383	2
4	21109	41079.748153616059	2
4	21110	41079.750213110909	0
4	21115	41088.910967887384	3
4	21116	41095.095236806422	1
4	21121	41111.733772539086	3
4	21124	41115.617150793878	2
4	21125	41121.598870107061	0
4	21126	41129.848306240512	1
4	21129	41154.722567300775	0
4	21132	41156.857381951879	0
4	21137	41166.018322587	5
4	21138	41167.803342910769	0
4	21139	41174.661050818325	3
4	21140	41183.995738288611	4
4	21143	41192.29866511562	1
4	21146	41198.948965621461	0
4	21153	41209.855426536371	3
4	21156	41220.170953863788	2
4	21159	41225.167261147288	1
4	21160	41227.598786391409	0
4	21165	41237.97363912389	1
4	21168	41241.910069994117	0
4	21169	41242.405573986412	3
4	21176	41249.247067265068	4
4	21177	41252.138224555725	0
4	21180	41258.480339824449	0
4	21183	41282.348884027024	3
4	21184	41286.55348858428	0
4	21185	41287.401418934469	1
4	21186	41290.998701415649	2
4	21193	41313.735031192158	1
4	21202	41327.267085695455	3
4	21209	41340.80103080898	5
4	21210	41341.093018590291	3
4	21213	41343.849316940761	3
4	21216	41353.882278937192	6
4	21217	41354.078143480287	2
4	21222	41360.339034045155	3
4	21232	41368.8294054183	3
4	21236	41370.611432671186	2
4	21239	41372.098104169208	2
4	21240	41372.208625092221	0
4	21243	41374.249382877619	1
4	21246	41385.612058475687	1
4	21247	41386.922690591939	7
4	21248	41388.463429925673	6
4	21249	41391.316505776662	9
4	21250	41391.356860181793	5
4	21255	41403.558538642361	0
4	21262	41411.021686485896	0
4	21263	41414.006594471936	6
4	21264	41414.851089506723	1
4	21267	41420.899094369633	3
4	21276	41434.341248439071	6
4	21277	41434.408361451674	0
4	21280	41436.007736939766	1
4	21285	41448.532137240921	8
4	21286	41451.542038749808	4
4	21293	41461.377355460311	9
4	21299	41479.79143778345	6
4	21305	41484.106726313877	4
4	21308	41486.471924869511	4
4	21311	41486.536775445669	5
4	21314	41487.84781942253	9
4	21317	41489.308507078638	3
4	21320	41490.925821124699	8
4	21324	41495.358527660757	2
4	21327	41495.895699937202	2
4	21330	41502.152258758307	6
4	21331	41502.907364288096	9
4	21334	41508.39547416022	2
4	21335	41508.798994044474	7
4	21338	41518.707940794958	0
4	21339	41518.896990827232	4
4	21342	41531.507659818947	2
4	21343	41541.373557440693	1
4	21344	41544.378344199971	6
4	21345	41547.857915044354	0
4	21348	41559.632879876576	5
4	21351	41562.505895711944	1
4	21356	41575.684922582712	0
4	21359	41583.834931488506	8
4	21364	41589.078841798692	0
4	21367	41596.153704034649	3
4	21370	41597.409519717092	3
4	21375	41610.684058893996	6
4	21376	41614.411692811422	0
4	21379	41621.205680452928	3
4	21382	41624.086622945955	4
4	21383	41625.954557758119	5
4	21386	41627.437808550259	0
4	21391	41630.073200061564	4
4	21392	41632.430521744035	0
4	21393	41641.184280199512	5
4	21400	41650.780375768645	5
4	21403	41658.650958427609	4
4	21412	41670.696264747796	6
4	21415	41675.173972103252	3
4	21418	41685.617562040069	4
4	21419	41690.175561222983	2
4	21420	41692.493214168941	5
4	21421	41692.783163632839	7
4	21426	41698.453236430936	3
4	21427	41699.000782896522	4
4	21430	41708.388823566385	8
4	21435	41714.955388061387	1
4	21436	41716.25607160075	5
4	21437	41721.657088232756	6
4	21438	41724.78236347069	3
4	21443	41738.253655496878	3
4	21450	41747.741153903893	1
4	21451	41748.029345561773	4
4	21454	41750.022416667697	6
4	21457	41755.012960624925	0
4	21460	41764.797328687058	5
4	21465	41772.29791186858	5
4	21466	41775.732843711633	3
4	21473	41782.254328292164	5
4	21476	41792.147713032216	7
4	21477	41793.525167713537	3
4	21478	41795.951957666699	0
4	21479	41798.624438755982	5
4	21482	41803.69734126024	2
4	21483	41806.15429284412	4
4	21488	41813.555785604109	6
4	21491	41817.37000525077	3
4	21494	41833.511094286552	3
4	21497	41842.979869319186	0
4	21498	41844.886858483264	1
4	21507	41855.839864848182	6
4	21508	41856.51672162539	0
4	21511	41860.33623506255	0
4	21512	41860.662044734056	3
4	21515	41861.534841733775	4
4	21516	41862.125815811155	0
4	21517	41868.727153132905	1
4	21520	41896.299237932417	2
4	21525	41915.193650241777	5
4	21526	41920.813957106627	0
4	21533	41930.722295047958	3
4	21534	41935.728706191084	4
4	21541	41949.916730402168	4
4	21542	41955.075066872242	0
4	21543	41958.412589728812	2
4	21550	41982.867758405548	1
4	21553	41991.918445095942	4
4	21554	41995.667904428763	3
4	21559	41999.089813233029	1
4	21562	42002.666364987542	2
4	21567	42021.64777758277	1
4	21568	42029.4262565843	0
4	21569	42034.060991347248	3
4	21574	42044.806109511578	2
4	21579	42051.277121164158	6
4	21588	42060.74125203322	0
4	21589	42067.648367609283	5
4	21590	42069.605199482372	4
4	21597	42087.18151311021	3
4	21600	42092.411987595161	8
4	21603	42093.801037594284	3
4	21604	42093.888133151297	1
4	21607	42097.701883054186	2
4	21612	42100.602895789199	9
4	21617	42105.271852357298	4
4	21620	42105.469334214039	2
4	21624	42107.448335259264	9
4	21628	42116.077191431865	7
4	21631	42116.164532407989	0
4	21632	42119.955823861991	5
4	21639	42122.860952765425	6
4	21642	42127.639425200829	0
4	21645	42129.175890001717	8
4	21646	42129.38526807373	6
4	21649	42133.978649898879	1
4	21650	42138.070447068564	6
4	21651	42138.521728989146	3
4	21652	42144.71010529317	4
4	21653	42147.914803006893	2
4	21654	42148.311903328282	5
4	21657	42149.958321104162	7
4	21660	42158.378315342099	0
4	21663	42159.640780877184	1
4	21668	42162.650087412589	1
4	21669	42170.239307502482	2
4	21678	42192.730133705534	1
4	21683	42200.188029739697	0
4	21684	42200.759568685859	4
4	21687	42209.758837353184	0
4	21690	42210.319932578037	3
4	21691	42211.375724272815	0
4	21694	42215.783858041233	2
4	21699	42222.690040170543	9
4	21700	42224.328135653327	1
4	21703	42228.424585945578	5
4	21704	42228.863795595759	3
4	21709	42244.291979209489	0
4	21710	42246.215890967993	1
4	21711	42251.051627389836	6
4	21716	42253.86769860466	0
4	21719	42256.451169026296	1
4	21720	42257.501788184237	0
4	21729	42280.273441999444	1
4	21730	42282.048702587651	2
4	21731	42284.056700543786	6
4	21734	42296.061882717053	3
4	21737	42303.055184562663	0
4	21740	42311.451376659721	4
4	21749	42317.580410273434	2
4	21750	42322.827627554135	1
4	21751	42323.967062890064	7
4	21756	42335.72492416251	0
4	21757	42336.674690963726	1
4	21758	42337.62927559174	5
4	21761	42346.757805593199	0
4	21764	42353.867206856271	4
4	21771	42359.776448037477	3
4	21772	42360.619621659404	2
4	21779	42369.391309451247	0
4	21786	42373.676200499988	7
4	21789	42378.129672609538	1
4	21790	42378.746533396971	7
4	21791	42379.64347038676	3
4	21792	42381.544769072705	0
4	21793	42382.081326843246	4
4	21794	42383.490335468173	2
4	21795	42388.766591537071	6
4	21798	42393.672876464252	5
4	21803	42402.623590800602	2
4	21810	42408.769093340373	9
4	21811	42410.615530009644	1
4	21812	42411.265601075839	2
4	21815	42420.739621145	3
4	21816	42423.664832275197	0
4	21821	42434.313486999549	0
4	21822	42434.870756217447	4
4	21823	42437.890234266787	8
4	21824	42443.060972629025	1
4	21829	42461.656491425511	2
4	21834	42474.146847174709	1
4	21847	42489.267924404162	8
4	21848	42490.721254980594	2
4	21853	42504.790128820214	6
4	21854	42508.88081782447	5
4	21859	42517.074948007212	4
4	21860	42517.807580778717	0
4	21861	42523.706000209076	5
4	21864	42527.308863635866	0
4	21869	42532.444463348558	1
4	21874	42535.713739397835	8
4	21875	42537.172311932276	4
4	21876	42537.387439370315	7
4	21877	42538.542602493029	6
4	21880	42540.765927586474	2
4	21881	42543.507775394943	5
4	21882	42545.216644312354	3
4	21883	42556.298091194594	0
4	21884	42559.748281009761	1
4	21893	42573.521676509738	0
4	21896	42578.630675042961	2
4	21897	42578.930218868306	4
4	21898	42579.480715431646	3
4	21901	42587.571998294096	0
4	21902	42588.526164120561	2
4	21909	42619.798618302022	2
4	21912	42631.301547122705	2
4	21913	42635.142430561098	1
4	21916	42645.296163127759	3
4	21927	42683.857513960783	0
4	21934	42697.347074089894	4
4	21935	42700.987698467563	3
4	21936	42702.73953716871	0
4	21937	42710.887352035378	6
4	21938	42721.537920767457	1
4	21939	42722.991358436115	5
4	21940	42723.657198833449	2
4	21945	42732.544266851198	1
4	21946	42734.303269753457	7
4	21947	42735.520699780372	8
4	21952	42746.464773693553	0
4	21959	42764.162201135305	2
4	21962	42767.13165406446	0
4	21965	42774.18242250388	0
4	21974	42782.181655804199	4
4	21977	42788.873982107478	2
4	21984	42796.248150065837	8
4	21987	42797.393483278965	8
4	21988	42797.694334382751	6
4	21991	42807.126970733091	5
4	21994	42814.232950978988	0
4	21997	42821.863853647158	2
4	21998	42825.220826908538	6
4	21999	42826.531887047478	5
4	22002	42833.548069444716	0
4	22005	42836.276327166099	1
4	22006	42841.897834886736	3
4	22009	42861.309551971264	7
4	22012	42870.351288687345	4
4	22013	42876.286011413438	3
4	22018	42898.555747283049	0
4	22019	42899.079424432074	3
4	22020	42902.717128804414	9
4	22021	42904.604654532895	2
4	22022	42913.826936795808	4
4	22025	42920.516665334624	1
4	22028	42941.807709939535	0
4	22029	42957.200186293071	1
4	22040	42985.434944136262	1
4	22051	43002.293603988003	0
4	22054	43006.583447911702	7
4	22055	43011.774557830492	8
4	22056	43012.76202943491	5
4	22057	43018.076292587963	3
4	22058	43018.276233940517	2
4	22059	43019.659137918942	0
4	22060	43021.056938600114	4
4	22063	43029.617505081572	1
4	22068	43044.483481941932	1
4	22073	43060.227442602356	1
4	22076	43064.452267074737	0
4	22079	43071.690942200625	1
4	22082	43076.231769137294	0
4	22083	43080.499808219597	1
4	22086	43084.023228802304	2
4	22089	43092.935352319845	6
4	22096	43101.613405076289	3
4	22099	43110.525941044653	1
4	22102	43112.357008494422	5
4	22105	43118.819735244735	4
4	22106	43120.493262160339	2
4	22107	43129.887826885205	1
4	22108	43129.911463564152	3
4	22111	43133.294930248191	5
4	22114	43134.945779566527	2
4	22115	43140.648404773901	1
4	22122	43155.524102004477	0
4	22125	43161.503224433608	0
4	22132	43170.655440683446	2
4	22135	43171.943381276729	2
4	22138	43179.292414705451	1
4	22143	43183.082098059544	5
4	22150	43188.192109933983	2
4	22153	43188.367161492949	4
4	22156	43197.820686125737	2
4	22157	43197.908383694995	6

