version 2
run General-0-20180204-17:50:46-4636
attr configname General
attr datetime 20180204-17:50:46
attr experiment General
attr inifile carrefour.ini
attr iterationvars $0=150
attr iterationvarsf 150-
attr measurement $0=150
attr network Carrefour
attr processid 4636
attr repetition 0
attr replication #0
attr resultdir results
attr runnumber 0
attr seedset 0
param **.lambda 150
param **.numeroCasse 2
param **.mu 30
param **.tipoSimulazione 0
param **.delay 3
param **.ServiceType 1
param **.varianceLogNormal 0.25
param **.meanLogNormal 30

vector 0 Carrefour.coda 1_Lambda:vector ETV
attr source Interarrivals
attr title "1/lambda, vector"
vector 1 Carrefour.coda E_Nq:vector ETV
attr source QueueLenght
attr title "E[Nq], vector"
vector 2 Carrefour.coda E_W:vector ETV
attr source Queuing
attr title "E[W], vector"
vector 3 Carrefour.decisore E_R:vector ETV
attr source TotalTime
attr title "E[R], vector"
vector 4 Carrefour.decisore ActiveTillStat:vector ETV
attr source ActiveTill
attr title "Active Till, vector"
0	1	7	7
0	4	273.122624325227	266.12262432523
0	7	451.947901110995	178.82527678577
0	10	783.368980887131	331.42107977614
0	13	824.110090554084	40.741109666953
0	16	1352.061717457142	527.95162690306
0	19	1598.646645076477	246.58492761933
0	22	1704.627399066467	105.98075398999
0	25	1788.564358669335	83.936959602868
0	28	1827.200405967153	38.636047297818
0	31	1896.143256868724	68.942850901571
0	34	2237.155258934543	341.01200206582
0	37	2324.026142319508	86.870883384965
0	40	2398.853045114778	74.82690279527
0	42	2406.615666993918	7.76262187914
0	46	2697.005063356525	290.38939636261
0	49	2750.690413344696	53.685349988171
0	51	2753.808877258923	3.118463914227
0	55	2920.700680653945	166.89180339502
0	58	3033.066235680703	112.36555502676
0	61	3213.394606174296	180.32837049359
0	64	3471.904988247256	258.51038207296
0	67	3542.318145852046	70.41315760479
0	69	3550.489902485931	8.171756633885
0	73	3677.793243505689	127.30334101976
0	76	3994.01912572701	316.22588222132
0	79	4044.112841895486	50.093716168476
0	82	4147.063850273568	102.95100837808
0	85	4381.905574842849	234.84172456928
0	88	4561.484300916472	179.57872607362
0	91	5043.957724067964	482.47342315149
0	94	5106.660111286471	62.702387218507
0	97	5404.173033137908	297.51292185144
0	100	5516.551777339485	112.37874420158
0	103	5574.447452204355	57.89567486487
0	106	5724.46524099246	150.01778878811
0	109	5916.554090556567	192.08884956411
0	111	5942.278343199151	25.724252642584
0	115	6088.009898575004	145.73155537585
0	118	6198.763898523389	110.75399994839
0	121	6373.486614024437	174.72271550105
0	124	6463.540924577121	90.054310552684
0	127	6701.109442412498	237.56851783538
0	130	6759.28070921682	58.171266804322
0	132	6770.387817521417	11.107108304597
0	136	7375.439155536647	605.05133801523
0	139	7784.785485765296	409.34633022865
0	142	7903.948348740773	119.16286297548
0	145	8145.177642102704	241.22929336193
0	148	8240.074616944178	94.896974841474
0	151	8703.593667031179	463.519050087
0	154	8747.195968913358	43.602301882179
0	157	9030.34967921102	283.15371029766
0	160	9404.145170416407	373.79549120539
0	163	9583.175096936556	179.02992652015
0	166	9967.117271452118	383.94217451556
0	168	9995.567753274202	28.450481822084
0	172	10123.056714048293	127.48896077409
0	175	10171.070300825992	48.013586777699
0	178	10258.843425563292	87.7731247373
0	181	10354.757991811225	95.914566247933
0	184	10486.240763807498	131.48277199627
0	187	10787.339070174021	301.09830636652
0	190	11068.277182116928	280.93811194291
0	192	11092.574441600349	24.297259483421
0	196	11203.18051412931	110.60607252896
0	199	11481.956222262567	278.77570813326
0	202	11575.672567099698	93.716344837131
0	204	11596.235596840275	20.563029740577
0	208	11729.075253790393	132.83965695012
0	211	12117.850847539626	388.77559374923
0	214	12159.374597489228	41.523749949602
0	217	12375.148627378241	215.77402988901
0	219	12404.887493663696	29.738866285455
0	221	12408.484951015859	3.597457352163
0	226	12544.706223662097	136.22127264624
0	229	12671.417122033328	126.71089837123
0	232	12730.672142270761	59.255020237433
0	235	12828.897856192532	98.225713921771
0	238	13188.822567821979	359.92471162945
0	241	13334.808973041911	145.98640521993
0	243	13358.489423582356	23.680450540445
0	247	13649.314695913265	290.82527233091
0	250	13760.798923261069	111.4842273478
0	253	14226.129915607271	465.3309923462
0	256	14477.21891516078	251.08899955351
0	259	14855.051021563755	377.83210640298
0	262	15078.08533059259	223.03430902883
0	265	15134.942886034593	56.857555442003
0	268	15323.966166905342	189.02328087075
0	271	15891.052255245785	567.08608834044
0	274	16040.582134601172	149.52987935539
0	277	16290.774109579877	250.1919749787
0	280	16493.306541071798	202.53243149192
0	282	16512.764771053222	19.458229981424
0	286	17065.213444031633	552.44867297841
0	289	17278.824756376051	213.61131234442
0	290	17281.470188193217	2.645431817166
0	295	17518.505718838392	237.03553064517
0	298	17665.409625460055	146.90390662166
0	301	17782.158866830929	116.74924137087
0	303	17789.036719342837	6.877852511908
0	307	17934.620326633797	145.58360729096
0	310	18291.132992414875	356.51266578108
0	313	18413.501087105095	122.36809469022
0	316	18719.537709655144	306.03662255005
0	319	18957.898294378257	238.36058472311
0	321	18983.766734261974	25.868439883717
0	325	19176.795213247314	193.02847898534
0	328	19254.998177870955	78.202964623641
0	331	19322.156728377655	67.1585505067
0	334	19460.252426713648	138.09569833599
0	337	19597.713668375385	137.46124166174
0	339	19605.127004973348	7.413336597963
0	343	19926.137732538649	321.0107275653
0	346	20087.557608090038	161.41987555139
0	349	20460.968268789831	373.41066069979
0	352	20548.489368977958	87.521100188127
0	355	20644.19203054885	95.702661570892
0	358	20679.735564204482	35.543533655632
0	360	20712.198691003689	32.463126799207
0	364	21142.912114360327	430.71342335664
0	366	21163.622863231621	20.710748871294
0	368	21170.30335529931	6.680492067689
0	374	21240.253864070399	69.950508771089
0	377	21370.367743366111	130.11387929571
0	380	21508.827506053761	138.45976268765
0	383	21631.476900798271	122.64939474451
0	386	21745.991144094676	114.5142432964
0	389	21922.992877844798	177.00173375012
0	391	21950.590159115928	27.59728127113
0	394	21957.035478415453	6.445319299525
0	397	21988.262796682701	31.227318267248
0	401	22026.716364771844	38.453568089143
0	404	22104.617834072756	77.901469300912
0	407	22458.148736984243	353.53090291149
0	409	22474.955255011935	16.806518027692
0	413	22598.513109240357	123.55785422842
0	416	22708.268601761817	109.75549252146
0	419	22897.970088324334	189.70148656252
0	422	22960.470814106093	62.500725781759
0	425	23157.966830643075	197.49601653698
0	428	23212.601408341119	54.634577698044
0	430	23232.481812081865	19.880403740746
0	433	23266.696512294819	34.214700212954
0	437	23438.454761406844	171.75824911202
0	440	23592.42827292562	153.97351151878
0	442	23616.898146165828	24.469873240208
0	446	23673.21472121923	56.316575053402
0	449	23877.519219747471	204.30449852824
0	452	23925.95981102945	48.440591281979
0	455	24028.515663612841	102.55585258339
0	457	24057.832664693034	29.317001080193
0	461	24285.230033341574	227.39736864854
0	464	24461.814053593868	176.58402025229
0	467	24589.22534442848	127.41129083461
0	470	24889.873095798689	300.64775137021
0	472	24918.780120129051	28.907024330362
0	476	25099.832447540457	181.05232741141
0	479	25137.341631680382	37.509184139925
0	482	25240.123157685635	102.78152600525
0	485	25285.184486984895	45.06132929926
0	488	25381.844891499809	96.660404514914
0	489	25384.033832695758	2.188941195949
0	494	25525.017383619431	140.98355092367
0	497	25615.227963867708	90.210580248277
0	500	25883.565222577419	268.33725870971
0	502	25887.895205083979	4.32998250656
0	506	25931.480926866778	43.585721782799
0	509	26149.149008444973	217.6680815782
0	512	26190.902651417667	41.753642972694
0	515	26480.168409034405	289.26575761674
0	518	26634.243006805809	154.0745977714
0	521	26980.415429606173	346.17242280036
0	524	27129.775411363344	149.35998175717
0	527	27431.94029445667	302.16488309333
0	530	27493.259452351292	61.319157894622
0	533	27554.40977910564	61.150326754348
0	536	27708.261593361817	153.85181425618
0	538	27730.527333441552	22.265740079735
0	539	27735.903547548277	5.376214106725
0	546	27962.819947737019	226.91640018874
0	549	28192.555737182056	229.73578944504
0	552	28422.737515018458	230.1817778364
0	555	28715.519422117425	292.78190709897
0	558	28842.737706510705	127.21828439328
0	561	28959.934615150275	117.19690863957
0	564	29172.585825111824	212.65120996155
0	567	29452.529574437389	279.94374932557
0	570	29555.990964655964	103.46139021858
0	573	29590.852757998173	34.861793342209
0	576	29692.197449049383	101.34469105121
0	579	29756.719662136296	64.522213086913
0	581	29774.121481609065	17.401819472769
0	585	29913.754598496402	139.63311688734
0	588	29987.799857335674	74.045258839272
0	590	30005.365281687213	17.565424351539
0	592	30014.074407627989	8.709125940776
0	598	30335.876477325162	321.80206969717
0	601	30458.463204122505	122.58672679734
0	604	30662.939546997656	204.47634287515
0	606	30675.221153843195	12.281606845539
0	610	30743.138161256465	67.91700741327
0	612	30760.322662529539	17.184501273074
0	616	30796.494155654368	36.171493124829
0	618	30826.171773549706	29.677617895338
0	621	30857.887352757509	31.715579207803
0	624	30888.641087442172	30.753734684663
0	627	30909.322870263714	20.681782821542
0	631	30952.91042506693	43.587554803216
0	633	30960.478855049522	7.568429982592
0	635	30968.151883643577	7.673028594055
0	641	31063.719381292262	95.567497648685
0	644	31108.701059334305	44.981678042043
0	647	31220.165842868582	111.46478353428
0	649	31237.877417216077	17.711574347495
0	653	31307.233267778217	69.35585056214
0	655	31338.186669234902	30.953401456685
0	659	31432.04722614623	93.860556911328
0	662	31532.238892515017	100.19166636879
0	665	31821.086692637654	288.84780012264
0	668	31875.349520524642	54.262827886988
0	670	31883.900576478086	8.551055953444
0	674	31941.028786404476	57.12820992639
0	677	32383.842929357879	442.8141429534
0	680	32492.292632482773	108.44970312489
0	683	32569.172198969995	76.879566487222
0	685	32589.394343280321	20.222144310326
0	689	33010.433433301019	421.0390900207
0	692	33067.728428830031	57.294995529012
0	695	33248.583870332717	180.85544150269
0	698	33292.953358952027	44.36948861931
0	700	33317.485216439322	24.531857487295
0	704	33521.676587972591	204.19137153327
0	707	33607.477673861122	85.801085888531
0	709	33614.904303050472	7.42662918935
0	713	33773.769144670877	158.86484162041
0	716	34036.334512673737	262.56536800286
0	719	34107.720283392509	71.385770718772
0	722	34179.083647796317	71.363364403808
0	725	35289.861145773744	1110.7774979774
0	728	35598.231522340952	308.37037656721
0	731	35727.574751195292	129.34322885434
0	734	35783.044209735871	55.469458540579
0	737	35918.125045220477	135.08083548461
0	740	36263.215630911628	345.09058569115
0	743	36310.023908622217	46.808277710589
0	746	36358.586837556131	48.562928933914
0	749	36580.317425841852	221.73058828572
0	752	36933.239179422671	352.92175358082
0	755	37027.090606032741	93.85142661007
0	757	37036.545319585259	9.454713552518
0	761	37099.747607732122	63.202288146863
0	763	37105.980832480301	6.233224748179
0	765	37124.521342206769	18.540509726468
0	771	37400.984366826658	276.46302461989
0	774	37905.769895755472	504.78552892881
0	777	38196.361261973141	290.59136621767
0	780	38915.867681199589	719.50641922645
0	783	39286.774577089128	370.90689588954
0	785	39300.235333518241	13.460756429113
0	789	39445.850718797376	145.61538527913
0	792	39491.493318566326	45.64259976895
0	795	39845.239946643392	353.74662807707
0	798	40197.460923091263	352.22097644787
0	801	40562.375044958369	364.91412186711
0	804	41118.776127299166	556.4010823408
0	806	41147.439455078126	28.66332777896
0	809	41181.10045168277	33.660996604644
0	813	41339.691377193696	158.59092551093
0	816	41442.300218136743	102.60884094305
0	819	41488.480175920931	46.179957784188
0	822	41556.23169756153	67.751521640599
0	825	41792.833588061159	236.60189049963
0	827	41797.937477071143	5.103889009984
0	831	41854.420009475614	56.482532404471
0	834	42031.777533412182	177.35752393657
0	837	42481.668918799528	449.89138538735
0	839	42512.671595547013	31.002676747485
0	841	42514.866462800032	2.194867253019
0	846	42586.599689387546	71.733226587514
0	849	42878.953249574737	292.35356018719
1	1	7	0
1	4	273.122624325227	0
1	7	451.947901110995	0
1	10	783.368980887131	0
1	13	824.110090554084	0
1	16	1352.061717457142	0
1	19	1598.646645076477	0
1	22	1704.627399066467	0
1	25	1788.564358669335	0
1	28	1827.200405967153	0
1	31	1896.143256868724	0
1	34	2237.155258934543	0
1	37	2324.026142319508	0
1	40	2398.853045114778	0
1	42	2406.615666993918	0
1	46	2697.005063356525	0
1	49	2750.690413344696	0
1	51	2753.808877258923	0
1	55	2920.700680653945	0
1	58	3033.066235680703	0
1	61	3213.394606174296	0
1	64	3471.904988247256	0
1	67	3542.318145852046	0
1	69	3550.489902485931	0
1	73	3677.793243505689	0
1	76	3994.01912572701	0
1	79	4044.112841895486	0
1	82	4147.063850273568	0
1	85	4381.905574842849	0
1	88	4561.484300916472	0
1	91	5043.957724067964	0
1	94	5106.660111286471	0
1	97	5404.173033137908	0
1	100	5516.551777339485	0
1	103	5574.447452204355	0
1	106	5724.46524099246	0
1	109	5916.554090556567	0
1	111	5942.278343199151	0
1	115	6088.009898575004	0
1	118	6198.763898523389	0
1	121	6373.486614024437	0
1	124	6463.540924577121	0
1	127	6701.109442412498	0
1	130	6759.28070921682	0
1	132	6770.387817521417	0
1	136	7375.439155536647	0
1	139	7784.785485765296	0
1	142	7903.948348740773	0
1	145	8145.177642102704	0
1	148	8240.074616944178	0
1	151	8703.593667031179	0
1	154	8747.195968913358	0
1	157	9030.34967921102	0
1	160	9404.145170416407	0
1	163	9583.175096936556	0
1	166	9967.117271452118	0
1	168	9995.567753274202	0
1	172	10123.056714048293	0
1	175	10171.070300825992	0
1	178	10258.843425563292	0
1	181	10354.757991811225	0
1	184	10486.240763807498	0
1	187	10787.339070174021	0
1	190	11068.277182116928	0
1	192	11092.574441600349	0
1	196	11203.18051412931	0
1	199	11481.956222262567	0
1	202	11575.672567099698	0
1	204	11596.235596840275	0
1	208	11729.075253790393	0
1	211	12117.850847539626	0
1	214	12159.374597489228	0
1	217	12375.148627378241	0
1	219	12404.887493663696	0
1	221	12408.484951015859	0
1	226	12544.706223662097	0
1	229	12671.417122033328	0
1	232	12730.672142270761	0
1	235	12828.897856192532	0
1	238	13188.822567821979	0
1	241	13334.808973041911	0
1	243	13358.489423582356	0
1	247	13649.314695913265	0
1	250	13760.798923261069	0
1	253	14226.129915607271	0
1	256	14477.21891516078	0
1	259	14855.051021563755	0
1	262	15078.08533059259	0
1	265	15134.942886034593	0
1	268	15323.966166905342	0
1	271	15891.052255245785	0
1	274	16040.582134601172	0
1	277	16290.774109579877	0
1	280	16493.306541071798	0
1	282	16512.764771053222	0
1	286	17065.213444031633	0
1	289	17278.824756376051	0
1	290	17281.470188193217	0
1	295	17518.505718838392	0
1	298	17665.409625460055	0
1	301	17782.158866830929	0
1	303	17789.036719342837	0
1	307	17934.620326633797	0
1	310	18291.132992414875	0
1	313	18413.501087105095	0
1	316	18719.537709655144	0
1	319	18957.898294378257	0
1	321	18983.766734261974	0
1	325	19176.795213247314	0
1	328	19254.998177870955	0
1	331	19322.156728377655	0
1	334	19460.252426713648	0
1	337	19597.713668375385	0
1	339	19605.127004973348	0
1	343	19926.137732538649	0
1	346	20087.557608090038	0
1	349	20460.968268789831	0
1	352	20548.489368977958	0
1	355	20644.19203054885	0
1	358	20679.735564204482	0
1	360	20712.198691003689	0
1	364	21142.912114360327	0
1	366	21163.622863231621	0
1	370	21176.373930919476	0
1	374	21240.253864070399	0
1	377	21370.367743366111	0
1	380	21508.827506053761	0
1	383	21631.476900798271	0
1	386	21745.991144094676	0
1	389	21922.992877844798	0
1	391	21950.590159115928	0
1	394	21957.035478415453	0
1	397	21988.262796682701	0
1	401	22026.716364771844	0
1	404	22104.617834072756	0
1	407	22458.148736984243	0
1	409	22474.955255011935	0
1	413	22598.513109240357	0
1	416	22708.268601761817	0
1	419	22897.970088324334	0
1	422	22960.470814106093	0
1	425	23157.966830643075	0
1	428	23212.601408341119	0
1	430	23232.481812081865	0
1	433	23266.696512294819	0
1	437	23438.454761406844	0
1	440	23592.42827292562	0
1	442	23616.898146165828	0
1	446	23673.21472121923	0
1	449	23877.519219747471	0
1	452	23925.95981102945	0
1	455	24028.515663612841	0
1	457	24057.832664693034	0
1	461	24285.230033341574	0
1	464	24461.814053593868	0
1	467	24589.22534442848	0
1	470	24889.873095798689	0
1	472	24918.780120129051	0
1	476	25099.832447540457	0
1	479	25137.341631680382	0
1	482	25240.123157685635	0
1	485	25285.184486984895	0
1	488	25381.844891499809	0
1	489	25384.033832695758	0
1	494	25525.017383619431	0
1	497	25615.227963867708	0
1	500	25883.565222577419	0
1	502	25887.895205083979	0
1	506	25931.480926866778	0
1	509	26149.149008444973	0
1	512	26190.902651417667	0
1	515	26480.168409034405	0
1	518	26634.243006805809	0
1	521	26980.415429606173	0
1	524	27129.775411363344	0
1	527	27431.94029445667	0
1	530	27493.259452351292	0
1	533	27554.40977910564	0
1	536	27708.261593361817	0
1	538	27730.527333441552	0
1	542	27740.646075594673	0
1	546	27962.819947737019	0
1	549	28192.555737182056	0
1	552	28422.737515018458	0
1	555	28715.519422117425	0
1	558	28842.737706510705	0
1	561	28959.934615150275	0
1	564	29172.585825111824	0
1	567	29452.529574437389	0
1	570	29555.990964655964	0
1	573	29590.852757998173	0
1	576	29692.197449049383	0
1	579	29756.719662136296	0
1	581	29774.121481609065	0
1	585	29913.754598496402	0
1	588	29987.799857335674	0
1	590	30005.365281687213	0
1	594	30020.125324391033	0
1	598	30335.876477325162	0
1	601	30458.463204122505	0
1	604	30662.939546997656	0
1	606	30675.221153843195	0
1	610	30743.138161256465	0
1	612	30760.322662529539	0
1	616	30796.494155654368	0
1	618	30826.171773549706	0
1	621	30857.887352757509	0
1	624	30888.641087442172	0
1	627	30909.322870263714	0
1	631	30952.91042506693	0
1	633	30960.478855049522	0
1	637	30985.97574133449	0
1	641	31063.719381292262	0
1	644	31108.701059334305	0
1	647	31220.165842868582	0
1	649	31237.877417216077	0
1	653	31307.233267778217	0
1	655	31338.186669234902	0
1	659	31432.04722614623	0
1	662	31532.238892515017	0
1	665	31821.086692637654	0
1	668	31875.349520524642	0
1	670	31883.900576478086	0
1	674	31941.028786404476	0
1	677	32383.842929357879	0
1	680	32492.292632482773	0
1	683	32569.172198969995	0
1	685	32589.394343280321	0
1	689	33010.433433301019	0
1	692	33067.728428830031	0
1	695	33248.583870332717	0
1	698	33292.953358952027	0
1	700	33317.485216439322	0
1	704	33521.676587972591	0
1	707	33607.477673861122	0
1	709	33614.904303050472	0
1	713	33773.769144670877	0
1	716	34036.334512673737	0
1	719	34107.720283392509	0
1	722	34179.083647796317	0
1	725	35289.861145773744	0
1	728	35598.231522340952	0
1	731	35727.574751195292	0
1	734	35783.044209735871	0
1	737	35918.125045220477	0
1	740	36263.215630911628	0
1	743	36310.023908622217	0
1	746	36358.586837556131	0
1	749	36580.317425841852	0
1	752	36933.239179422671	0
1	755	37027.090606032741	0
1	757	37036.545319585259	0
1	761	37099.747607732122	0
1	763	37105.980832480301	0
1	767	37132.759030263672	0
1	771	37400.984366826658	0
1	774	37905.769895755472	0
1	777	38196.361261973141	0
1	780	38915.867681199589	0
1	783	39286.774577089128	0
1	785	39300.235333518241	0
1	789	39445.850718797376	0
1	792	39491.493318566326	0
1	795	39845.239946643392	0
1	798	40197.460923091263	0
1	801	40562.375044958369	0
1	804	41118.776127299166	0
1	806	41147.439455078126	0
1	809	41181.10045168277	0
1	813	41339.691377193696	0
1	816	41442.300218136743	0
1	819	41488.480175920931	0
1	822	41556.23169756153	0
1	825	41792.833588061159	0
1	827	41797.937477071143	0
1	831	41854.420009475614	0
1	834	42031.777533412182	0
1	837	42481.668918799528	0
1	839	42512.671595547013	0
1	841	42514.866462800032	0
1	846	42586.599689387546	0
1	849	42878.953249574737	0
2	1	7	0
2	4	273.122624325227	0
2	7	451.947901110995	0
2	10	783.368980887131	0
2	13	824.110090554084	0
2	16	1352.061717457142	0
2	19	1598.646645076477	0
2	22	1704.627399066467	0
2	25	1788.564358669335	0
2	28	1827.200405967153	0
2	31	1896.143256868724	0
2	34	2237.155258934543	0
2	37	2324.026142319508	0
2	40	2398.853045114778	0
2	42	2406.615666993918	0
2	46	2697.005063356525	0
2	49	2750.690413344696	0
2	51	2753.808877258923	0
2	55	2920.700680653945	0
2	58	3033.066235680703	0
2	61	3213.394606174296	0
2	64	3471.904988247256	0
2	67	3542.318145852046	0
2	69	3550.489902485931	0
2	73	3677.793243505689	0
2	76	3994.01912572701	0
2	79	4044.112841895486	0
2	82	4147.063850273568	0
2	85	4381.905574842849	0
2	88	4561.484300916472	0
2	91	5043.957724067964	0
2	94	5106.660111286471	0
2	97	5404.173033137908	0
2	100	5516.551777339485	0
2	103	5574.447452204355	0
2	106	5724.46524099246	0
2	109	5916.554090556567	0
2	111	5942.278343199151	0
2	115	6088.009898575004	0
2	118	6198.763898523389	0
2	121	6373.486614024437	0
2	124	6463.540924577121	0
2	127	6701.109442412498	0
2	130	6759.28070921682	0
2	132	6770.387817521417	0
2	136	7375.439155536647	0
2	139	7784.785485765296	0
2	142	7903.948348740773	0
2	145	8145.177642102704	0
2	148	8240.074616944178	0
2	151	8703.593667031179	0
2	154	8747.195968913358	0
2	157	9030.34967921102	0
2	160	9404.145170416407	0
2	163	9583.175096936556	0
2	166	9967.117271452118	0
2	168	9995.567753274202	0
2	172	10123.056714048293	0
2	175	10171.070300825992	0
2	178	10258.843425563292	0
2	181	10354.757991811225	0
2	184	10486.240763807498	0
2	187	10787.339070174021	0
2	190	11068.277182116928	0
2	192	11092.574441600349	0
2	196	11203.18051412931	0
2	199	11481.956222262567	0
2	202	11575.672567099698	0
2	204	11596.235596840275	0
2	208	11729.075253790393	0
2	211	12117.850847539626	0
2	214	12159.374597489228	0
2	217	12375.148627378241	0
2	219	12404.887493663696	0
2	221	12408.484951015859	0
2	226	12544.706223662097	0
2	229	12671.417122033328	0
2	232	12730.672142270761	0
2	235	12828.897856192532	0
2	238	13188.822567821979	0
2	241	13334.808973041911	0
2	243	13358.489423582356	0
2	247	13649.314695913265	0
2	250	13760.798923261069	0
2	253	14226.129915607271	0
2	256	14477.21891516078	0
2	259	14855.051021563755	0
2	262	15078.08533059259	0
2	265	15134.942886034593	0
2	268	15323.966166905342	0
2	271	15891.052255245785	0
2	274	16040.582134601172	0
2	277	16290.774109579877	0
2	280	16493.306541071798	0
2	282	16512.764771053222	0
2	286	17065.213444031633	0
2	289	17278.824756376051	0
2	290	17281.470188193217	0
2	295	17518.505718838392	0
2	298	17665.409625460055	0
2	301	17782.158866830929	0
2	303	17789.036719342837	0
2	307	17934.620326633797	0
2	310	18291.132992414875	0
2	313	18413.501087105095	0
2	316	18719.537709655144	0
2	319	18957.898294378257	0
2	321	18983.766734261974	0
2	325	19176.795213247314	0
2	328	19254.998177870955	0
2	331	19322.156728377655	0
2	334	19460.252426713648	0
2	337	19597.713668375385	0
2	339	19605.127004973348	0
2	343	19926.137732538649	0
2	346	20087.557608090038	0
2	349	20460.968268789831	0
2	352	20548.489368977958	0
2	355	20644.19203054885	0
2	358	20679.735564204482	0
2	360	20712.198691003689	0
2	364	21142.912114360327	0
2	366	21163.622863231621	0
2	370	21176.373930919476	6.070575620166
2	374	21240.253864070399	0
2	377	21370.367743366111	0
2	380	21508.827506053761	0
2	383	21631.476900798271	0
2	386	21745.991144094676	0
2	389	21922.992877844798	0
2	391	21950.590159115928	0
2	394	21957.035478415453	0
2	397	21988.262796682701	0
2	401	22026.716364771844	0
2	404	22104.617834072756	0
2	407	22458.148736984243	0
2	409	22474.955255011935	0
2	413	22598.513109240357	0
2	416	22708.268601761817	0
2	419	22897.970088324334	0
2	422	22960.470814106093	0
2	425	23157.966830643075	0
2	428	23212.601408341119	0
2	430	23232.481812081865	0
2	433	23266.696512294819	0
2	437	23438.454761406844	0
2	440	23592.42827292562	0
2	442	23616.898146165828	0
2	446	23673.21472121923	0
2	449	23877.519219747471	0
2	452	23925.95981102945	0
2	455	24028.515663612841	0
2	457	24057.832664693034	0
2	461	24285.230033341574	0
2	464	24461.814053593868	0
2	467	24589.22534442848	0
2	470	24889.873095798689	0
2	472	24918.780120129051	0
2	476	25099.832447540457	0
2	479	25137.341631680382	0
2	482	25240.123157685635	0
2	485	25285.184486984895	0
2	488	25381.844891499809	0
2	489	25384.033832695758	0
2	494	25525.017383619431	0
2	497	25615.227963867708	0
2	500	25883.565222577419	0
2	502	25887.895205083979	0
2	506	25931.480926866778	0
2	509	26149.149008444973	0
2	512	26190.902651417667	0
2	515	26480.168409034405	0
2	518	26634.243006805809	0
2	521	26980.415429606173	0
2	524	27129.775411363344	0
2	527	27431.94029445667	0
2	530	27493.259452351292	0
2	533	27554.40977910564	0
2	536	27708.261593361817	0
2	538	27730.527333441552	0
2	542	27740.646075594673	4.742528046396
2	546	27962.819947737019	0
2	549	28192.555737182056	0
2	552	28422.737515018458	0
2	555	28715.519422117425	0
2	558	28842.737706510705	0
2	561	28959.934615150275	0
2	564	29172.585825111824	0
2	567	29452.529574437389	0
2	570	29555.990964655964	0
2	573	29590.852757998173	0
2	576	29692.197449049383	0
2	579	29756.719662136296	0
2	581	29774.121481609065	0
2	585	29913.754598496402	0
2	588	29987.799857335674	0
2	590	30005.365281687213	0
2	594	30020.125324391033	6.050916763044
2	598	30335.876477325162	0
2	601	30458.463204122505	0
2	604	30662.939546997656	0
2	606	30675.221153843195	0
2	610	30743.138161256465	0
2	612	30760.322662529539	0
2	616	30796.494155654368	0
2	618	30826.171773549706	0
2	621	30857.887352757509	0
2	624	30888.641087442172	0
2	627	30909.322870263714	0
2	631	30952.91042506693	0
2	633	30960.478855049522	0
2	637	30985.97574133449	17.823857690913
2	641	31063.719381292262	0
2	644	31108.701059334305	0
2	647	31220.165842868582	0
2	649	31237.877417216077	0
2	653	31307.233267778217	0
2	655	31338.186669234902	0
2	659	31432.04722614623	0
2	662	31532.238892515017	0
2	665	31821.086692637654	0
2	668	31875.349520524642	0
2	670	31883.900576478086	0
2	674	31941.028786404476	0
2	677	32383.842929357879	0
2	680	32492.292632482773	0
2	683	32569.172198969995	0
2	685	32589.394343280321	0
2	689	33010.433433301019	0
2	692	33067.728428830031	0
2	695	33248.583870332717	0
2	698	33292.953358952027	0
2	700	33317.485216439322	0
2	704	33521.676587972591	0
2	707	33607.477673861122	0
2	709	33614.904303050472	0
2	713	33773.769144670877	0
2	716	34036.334512673737	0
2	719	34107.720283392509	0
2	722	34179.083647796317	0
2	725	35289.861145773744	0
2	728	35598.231522340952	0
2	731	35727.574751195292	0
2	734	35783.044209735871	0
2	737	35918.125045220477	0
2	740	36263.215630911628	0
2	743	36310.023908622217	0
2	746	36358.586837556131	0
2	749	36580.317425841852	0
2	752	36933.239179422671	0
2	755	37027.090606032741	0
2	757	37036.545319585259	0
2	761	37099.747607732122	0
2	763	37105.980832480301	0
2	767	37132.759030263672	8.237688056903
2	771	37400.984366826658	0
2	774	37905.769895755472	0
2	777	38196.361261973141	0
2	780	38915.867681199589	0
2	783	39286.774577089128	0
2	785	39300.235333518241	0
2	789	39445.850718797376	0
2	792	39491.493318566326	0
2	795	39845.239946643392	0
2	798	40197.460923091263	0
2	801	40562.375044958369	0
2	804	41118.776127299166	0
2	806	41147.439455078126	0
2	809	41181.10045168277	0
2	813	41339.691377193696	0
2	816	41442.300218136743	0
2	819	41488.480175920931	0
2	822	41556.23169756153	0
2	825	41792.833588061159	0
2	827	41797.937477071143	0
2	831	41854.420009475614	0
2	834	42031.777533412182	0
2	837	42481.668918799528	0
2	839	42512.671595547013	0
2	841	42514.866462800032	0
2	846	42586.599689387546	0
2	849	42878.953249574737	0
3	3	38.755085286241	31.755085286241
3	6	306.470957529834	33.348333204607
3	9	483.877322786959	31.929421675964
3	12	816.106681409093	32.737700521962
3	15	857.720555024234	33.61046447015
3	18	1384.344544857109	32.282827399967
3	21	1630.782846016637	32.13620094016
3	24	1737.842634794249	33.215235727782
3	27	1821.947374175646	33.383015506311
3	30	1861.125065593865	33.924659626712
3	33	1928.899609832971	32.756352964247
3	36	2269.908376160844	32.753117226301
3	39	2357.059699092857	33.033556773349
3	44	2431.60388743264	32.750842317862
3	45	2442.695631309811	36.079964315893
3	48	2730.049648039529	33.044584683004
3	53	2784.415603898118	33.725190553422
3	54	2790.578224540785	36.769347281862
3	57	2952.894304808344	32.193624154399
3	60	3065.941309695256	32.875074014553
3	63	3245.841606669212	32.447000494916
3	66	3505.056517988683	33.151529741427
3	71	3575.216886920111	32.898741068065
3	72	3587.060537435144	36.570634949213
3	75	3709.832682545144	32.039439039455
3	78	4027.371948496732	33.352822769722
3	81	4077.126206471123	33.013364575637
3	84	4180.165456949457	33.101606675889
3	87	4413.65031773024	31.744742887391
3	90	4594.402466755968	32.918165839496
3	93	5076.912408278157	32.954684210193
3	96	5139.063753849272	32.403642562801
3	99	5437.955160412371	33.782127274463
3	102	5548.918094260118	32.366316920633
3	105	5607.263253315036	32.815801110681
3	108	5756.714247203059	32.249006210599
3	113	5949.930473620191	33.376383063624
3	114	5978.621501958742	36.343158759591
3	117	6119.375430772321	31.365532197317
3	120	6231.324659958457	32.560761435068
3	123	6406.724938398441	33.238324374004
3	126	6496.254975650671	32.71405107355
3	129	6734.585424468151	33.475982055653
3	134	6792.418201802628	33.137492585808
3	135	6807.115772304505	36.727954783088
3	138	7407.161074968182	31.721919431535
3	141	7817.987152545942	33.201666780646
3	144	7937.270622732859	33.322273992086
3	147	8178.200865052295	33.023222949591
3	150	8272.699278093521	32.624661149343
3	153	8735.581278051876	31.987611020697
3	156	8781.291909915819	34.095941002461
3	159	9063.018388197938	32.668708986918
3	162	9437.092033157903	32.946862741496
3	165	9616.484309225472	33.309212288916
3	169	10000.189661062974	33.072389610856
3	171	10031.114453763232	35.54670048903
3	174	10156.54829533826	33.491581289967
3	177	10203.454884963005	32.384584137013
3	180	10291.113101321762	32.26967575847
3	183	10387.967733516773	33.209741705548
3	186	10519.32346146564	33.082697658142
3	189	10819.649527042493	32.310456868472
3	194	11101.706316678538	33.42913456161
3	195	11128.647890965831	36.073449365482
3	198	11235.586045527106	32.405531397796
3	201	11514.581780906798	32.625558644231
3	206	11608.656762870158	32.98419577046
3	207	11631.797838710888	35.562241870613
3	210	11762.78586944847	33.710615658077
3	213	12150.170642000008	32.319794460382
3	216	12192.815864630539	33.441267141311
3	220	12408.224513705628	33.075886327387
3	224	12441.007978611314	36.120484947618
3	225	12441.499511963259	33.0145609474
3	228	12577.511417317306	32.805193655209
3	231	12703.778098970897	32.360976937569
3	234	12764.245329688986	33.573187418225
3	237	12862.054743116225	33.156886923693
3	240	13221.879094216016	33.056526394037
3	245	13368.005110694789	33.196137652878
3	246	13394.544592233471	36.055168651115
3	249	13682.630652805997	33.315956892732
3	252	13794.22232397494	33.423400713871
3	255	14258.888775527355	32.758859920084
3	258	14509.636932227276	32.418017066496
3	261	14887.950041766126	32.899020202371
3	264	15111.976933021262	33.891602428672
3	267	15168.269518912237	33.326632877644
3	270	15357.357837974027	33.391671068685
3	273	15923.643278570675	32.59102332489
3	276	16073.358101108654	32.775966507482
3	279	16324.160097681642	33.385988101765
3	284	16525.969562114507	32.663021042709
3	285	16548.704315578092	35.93954452487
3	288	17098.531289494579	33.317845462946
3	293	17311.863416931461	33.03866055541
3	294	17316.545587157937	35.07539896472
3	297	17551.158269252849	32.652550414457
3	300	17698.180351496994	32.770726036939
3	305	17815.573782258121	33.414915427192
3	306	17824.827484738222	35.790765395385
3	309	17968.726335134362	34.106008500565
3	312	18323.661256714341	32.528264299466
3	315	18446.88577562524	33.384688520145
3	318	18752.397969190598	32.860259535454
3	323	18991.796475731351	33.898181353094
3	324	19019.746882843109	35.980148581135
3	327	19210.455448062209	33.660234814895
3	330	19287.7645604836	32.766382612645
3	333	19354.805578685225	32.64885030757
3	336	19493.264364158579	33.011937444931
3	341	19630.517859720134	32.804191344749
3	342	19640.54712437077	35.420119397422
3	345	19959.098094665396	32.960362126747
3	348	20119.590280619082	32.032672529044
3	351	20494.394057348298	33.425788558467
3	354	20580.935176533458	32.4458075555
3	357	20678.106479572211	33.914449023361
3	361	20712.474112360882	32.7385481564
3	363	20748.927707711031	36.729016707342
3	369	21176.373930919476	33.461816559149
3	372	21199.457789307862	35.834926076241
3	373	21209.187730198863	38.884374899553
3	376	21273.49955694437	33.245692873971
3	379	21403.48972905583	33.121985689719
3	382	21541.292519136878	32.465013083117
3	385	21664.446498705865	32.969597907594
3	388	21778.770877162911	32.779733068235
3	393	21957.034949792207	34.042071947409
3	396	21986.623276045784	36.033116929856
3	398	21989.941896463011	32.906418047558
3	400	22024.908096998586	36.645300315885
3	403	22059.693733363795	32.977368591951
3	406	22137.173447797366	32.55561372461
3	411	22490.536852164248	32.388115180005
3	412	22511.483612015192	36.528357003257
3	415	22630.724813412287	32.21170417193
3	418	22741.738911757567	33.47030999575
3	421	22930.237714533206	32.267626208872
3	424	22992.170184835324	31.699370729231
3	427	23191.357218520561	33.390387877486
3	432	23245.248691045668	32.647282704549
3	434	23268.00825402422	35.526441942355
3	436	23299.707268605004	33.010756310185
3	439	23471.153116310986	32.698354904142
3	444	23627.043646732208	34.615373806588
3	445	23652.883116289064	35.984970123236
3	448	23707.146946720872	33.932225501642
3	451	23910.214845234551	32.69562548708
3	454	23958.955084978704	32.995273949254
3	458	24061.47185771574	32.956194102899
3	460	24093.31173461643	35.479069923396
3	463	24318.061202041491	32.831168699917
3	466	24494.811113481169	32.997059887301
3	469	24621.621398739847	32.396054311367
3	473	24922.687952875067	32.814857076378
3	475	24954.395238611116	35.615118482065
3	478	25132.060323083839	32.227875543382
3	481	25169.847117517427	32.505485837045
3	484	25272.817143512674	32.693985827039
3	487	25318.419002487193	33.234515502298
3	492	25415.565071864051	33.720180364242
3	493	25420.219684936261	36.185852240503
3	496	25558.288623976523	33.271240357092
3	499	25648.033024583082	32.805060715374
3	504	25916.944435482828	33.379212905409
3	505	25924.567415117712	36.672210033733
3	508	25964.081065005853	32.600138139075
3	511	26181.516448584868	32.367440139895
3	514	26224.191332602968	33.288681185301
3	517	26512.483969544603	32.315560510198
3	520	26667.774933304464	33.531926498655
3	523	27013.173470828164	32.758041221991
3	526	27162.846800321579	33.071388958235
3	529	27465.951464581577	34.011170124907
3	532	27525.775322142253	32.515869790961
3	535	27588.199945496116	33.790166390476
3	541	27740.646075594673	32.384482232856
3	544	27767.187765621558	36.660432180006
3	545	27773.575112431243	37.671564882966
3	548	27995.158175627229	32.33822789021
3	551	28225.213815105857	32.658077923801
3	554	28456.200806773009	33.463291754551
3	557	28747.935979756277	32.416557638852
3	560	28876.56602970326	33.828323192555
3	563	28993.213272734644	33.278657584369
3	566	29205.709133921054	33.12330880923
3	569	29484.74142035751	32.211845920121
3	572	29588.695937908978	32.704973253014
3	575	29624.195345236406	33.342587238233
3	578	29724.77230410945	32.574855060067
3	583	29789.698542963948	32.978880827652
3	584	29809.186822554105	35.06534094504
3	587	29947.077584627616	33.322986131214
3	593	30020.125324391033	32.325467055359
3	596	30040.88869217932	35.523410492107
3	597	30053.752613238483	39.678205610494
3	600	30369.083837667782	33.20736034262
3	603	30491.240168702183	32.776964579678
3	608	30695.782820879932	32.843273882276
3	609	30710.80789270746	35.586738864265
3	614	30775.659307891382	32.521146634917
3	615	30795.903004363165	35.580341833626
3	619	30830.346169703122	33.852014048754
3	623	30861.616811629908	35.445038080202
3	625	30891.06993253303	33.182579775521
3	629	30924.936584995202	36.29549755303
3	630	30942.790200910056	33.467330646342
3	636	30985.97574133449	33.06531626756
3	639	30996.333190783657	35.854335734135
3	640	31018.854730753048	50.702847109471
3	643	31095.906082636226	32.186701343964
3	646	31141.607171386053	32.906112051748
3	651	31253.301536537426	33.135693668844
3	652	31274.313527361959	36.436110145882
3	656	31340.755473490012	33.522205711795
3	658	31374.70272570131	36.516056466408
3	661	31464.895696456019	32.848470309789
3	664	31565.17653412846	32.937641613443
3	667	31853.841004015733	32.754311378079
3	672	31908.642265736742	33.2927452121
3	673	31919.524940487685	35.624364009599
3	676	31973.73939948329	32.710613078814
3	679	32416.766151598538	32.923222240659
3	682	32525.254201502674	32.961569019901
3	687	32602.322547340273	33.150348370278
3	688	32625.158625140948	35.764281860627
3	691	33043.852845547062	33.419412246043
3	694	33100.593944263752	32.865515433721
3	697	33281.951377601048	33.367507268331
3	702	33325.953618661436	33.000259709409
3	703	33353.070278531148	35.585062091826
3	706	33554.356932356785	32.680344384194
3	711	33639.501954717967	32.024280856845
3	712	33651.056219345816	36.151916295344
3	715	33807.766107570484	33.996962899607
3	718	34068.739517115503	32.405004441766
3	721	34140.307374366193	32.587090973684
3	724	34212.399582992098	33.315935195781
3	727	35322.570390874919	32.709245101175
3	730	35631.635164058486	33.403641717534
3	733	35760.813901590635	33.239150395343
3	736	35815.540705260226	32.496495524355
3	739	35951.874087970599	33.749042750122
3	742	36296.186088298883	32.970457387255
3	745	36342.729190907746	32.705282285529
3	748	36392.076652801783	33.489815245652
3	751	36612.400598768859	32.083172927007
3	754	36965.76357808654	32.524398663869
3	759	37060.374085912374	33.283479879633
3	760	37072.625976424042	36.080656838783
3	766	37132.759030263672	33.01142253155
3	769	37142.345424716387	36.364592236086
3	770	37165.915794224641	41.394452017872
3	773	37433.853856996384	32.869490169726
3	776	37939.03985116548	33.269955410008
3	779	38229.198820885264	32.837558912123
3	782	38948.885394915675	33.017713716086
3	787	39320.179445112777	33.404868023649
3	788	39335.770097426353	35.534763908112
3	791	39479.401744019472	33.551025222096
3	794	39524.446615548923	32.953296982597
3	797	39878.423324630432	33.18337798704
3	800	40230.497889065395	33.036965974132
3	803	40594.51134809862	32.136303140251
3	807	41151.977616823345	33.201489524179
3	810	41183.418573575911	35.979118497785
3	812	41214.891767848136	33.791316165366
3	815	41372.598622208922	32.907245015226
3	818	41475.142863605966	32.842645469223
3	821	41521.465171177886	32.984995256955
3	824	41588.586324362693	32.354626801163
3	829	41826.584193748893	33.750605687734
3	830	41833.962103859075	36.024626787932
3	833	41887.598502127266	33.178492651652
3	836	42065.604274598825	33.826741186643
3	840	42514.160335139545	32.491416340017
3	844	42548.238704701567	33.372241901535
3	845	42548.786712233229	36.115116686216
3	848	42619.24125309862	32.641563711074
3	851	42911.978609389657	33.02535981492
4	3	38.755085286241	0
4	6	306.470957529834	0
4	9	483.877322786959	0
4	12	816.106681409093	0
4	15	857.720555024234	0
4	18	1384.344544857109	0
4	21	1630.782846016637	0
4	24	1737.842634794249	0
4	27	1821.947374175646	0
4	30	1861.125065593865	0
4	33	1928.899609832971	0
4	36	2269.908376160844	0
4	39	2357.059699092857	0
4	44	2431.60388743264	0
4	45	2442.695631309811	1
4	48	2730.049648039529	0
4	53	2784.415603898118	0
4	54	2790.578224540785	1
4	57	2952.894304808344	0
4	60	3065.941309695256	0
4	63	3245.841606669212	0
4	66	3505.056517988683	0
4	71	3575.216886920111	0
4	72	3587.060537435144	1
4	75	3709.832682545144	0
4	78	4027.371948496732	0
4	81	4077.126206471123	0
4	84	4180.165456949457	0
4	87	4413.65031773024	0
4	90	4594.402466755968	0
4	93	5076.912408278157	0
4	96	5139.063753849272	0
4	99	5437.955160412371	0
4	102	5548.918094260118	0
4	105	5607.263253315036	0
4	108	5756.714247203059	0
4	113	5949.930473620191	0
4	114	5978.621501958742	1
4	117	6119.375430772321	0
4	120	6231.324659958457	0
4	123	6406.724938398441	0
4	126	6496.254975650671	0
4	129	6734.585424468151	0
4	134	6792.418201802628	0
4	135	6807.115772304505	1
4	138	7407.161074968182	0
4	141	7817.987152545942	0
4	144	7937.270622732859	0
4	147	8178.200865052295	0
4	150	8272.699278093521	0
4	153	8735.581278051876	0
4	156	8781.291909915819	0
4	159	9063.018388197938	0
4	162	9437.092033157903	0
4	165	9616.484309225472	0
4	169	10000.189661062974	0
4	171	10031.114453763232	1
4	174	10156.54829533826	0
4	177	10203.454884963005	0
4	180	10291.113101321762	0
4	183	10387.967733516773	0
4	186	10519.32346146564	0
4	189	10819.649527042493	0
4	194	11101.706316678538	0
4	195	11128.647890965831	1
4	198	11235.586045527106	0
4	201	11514.581780906798	0
4	206	11608.656762870158	0
4	207	11631.797838710888	1
4	210	11762.78586944847	0
4	213	12150.170642000008	0
4	216	12192.815864630539	0
4	220	12408.224513705628	0
4	224	12441.007978611314	1
4	225	12441.499511963259	0
4	228	12577.511417317306	0
4	231	12703.778098970897	0
4	234	12764.245329688986	0
4	237	12862.054743116225	0
4	240	13221.879094216016	0
4	245	13368.005110694789	0
4	246	13394.544592233471	1
4	249	13682.630652805997	0
4	252	13794.22232397494	0
4	255	14258.888775527355	0
4	258	14509.636932227276	0
4	261	14887.950041766126	0
4	264	15111.976933021262	0
4	267	15168.269518912237	0
4	270	15357.357837974027	0
4	273	15923.643278570675	0
4	276	16073.358101108654	0
4	279	16324.160097681642	0
4	284	16525.969562114507	0
4	285	16548.704315578092	1
4	288	17098.531289494579	0
4	293	17311.863416931461	0
4	294	17316.545587157937	1
4	297	17551.158269252849	0
4	300	17698.180351496994	0
4	305	17815.573782258121	0
4	306	17824.827484738222	1
4	309	17968.726335134362	0
4	312	18323.661256714341	0
4	315	18446.88577562524	0
4	318	18752.397969190598	0
4	323	18991.796475731351	0
4	324	19019.746882843109	1
4	327	19210.455448062209	0
4	330	19287.7645604836	0
4	333	19354.805578685225	0
4	336	19493.264364158579	0
4	341	19630.517859720134	0
4	342	19640.54712437077	1
4	345	19959.098094665396	0
4	348	20119.590280619082	0
4	351	20494.394057348298	0
4	354	20580.935176533458	0
4	357	20678.106479572211	0
4	361	20712.474112360882	0
4	363	20748.927707711031	1
4	369	21176.373930919476	0
4	372	21199.457789307862	1
4	373	21209.187730198863	0
4	376	21273.49955694437	0
4	379	21403.48972905583	0
4	382	21541.292519136878	0
4	385	21664.446498705865	0
4	388	21778.770877162911	0
4	393	21957.034949792207	0
4	396	21986.623276045784	1
4	398	21989.941896463011	0
4	400	22024.908096998586	1
4	403	22059.693733363795	0
4	406	22137.173447797366	0
4	411	22490.536852164248	0
4	412	22511.483612015192	1
4	415	22630.724813412287	0
4	418	22741.738911757567	0
4	421	22930.237714533206	0
4	424	22992.170184835324	0
4	427	23191.357218520561	0
4	432	23245.248691045668	0
4	434	23268.00825402422	1
4	436	23299.707268605004	0
4	439	23471.153116310986	0
4	444	23627.043646732208	0
4	445	23652.883116289064	1
4	448	23707.146946720872	0
4	451	23910.214845234551	0
4	454	23958.955084978704	0
4	458	24061.47185771574	0
4	460	24093.31173461643	1
4	463	24318.061202041491	0
4	466	24494.811113481169	0
4	469	24621.621398739847	0
4	473	24922.687952875067	0
4	475	24954.395238611116	1
4	478	25132.060323083839	0
4	481	25169.847117517427	0
4	484	25272.817143512674	0
4	487	25318.419002487193	0
4	492	25415.565071864051	0
4	493	25420.219684936261	1
4	496	25558.288623976523	0
4	499	25648.033024583082	0
4	504	25916.944435482828	0
4	505	25924.567415117712	1
4	508	25964.081065005853	0
4	511	26181.516448584868	0
4	514	26224.191332602968	0
4	517	26512.483969544603	0
4	520	26667.774933304464	0
4	523	27013.173470828164	0
4	526	27162.846800321579	0
4	529	27465.951464581577	0
4	532	27525.775322142253	0
4	535	27588.199945496116	0
4	541	27740.646075594673	0
4	544	27767.187765621558	1
4	545	27773.575112431243	0
4	548	27995.158175627229	0
4	551	28225.213815105857	0
4	554	28456.200806773009	0
4	557	28747.935979756277	0
4	560	28876.56602970326	0
4	563	28993.213272734644	0
4	566	29205.709133921054	0
4	569	29484.74142035751	0
4	572	29588.695937908978	0
4	575	29624.195345236406	0
4	578	29724.77230410945	0
4	583	29789.698542963948	0
4	584	29809.186822554105	1
4	587	29947.077584627616	0
4	593	30020.125324391033	0
4	596	30040.88869217932	1
4	597	30053.752613238483	0
4	600	30369.083837667782	0
4	603	30491.240168702183	0
4	608	30695.782820879932	0
4	609	30710.80789270746	1
4	614	30775.659307891382	0
4	615	30795.903004363165	1
4	619	30830.346169703122	0
4	623	30861.616811629908	1
4	625	30891.06993253303	0
4	629	30924.936584995202	1
4	630	30942.790200910056	0
4	636	30985.97574133449	0
4	639	30996.333190783657	1
4	640	31018.854730753048	0
4	643	31095.906082636226	0
4	646	31141.607171386053	0
4	651	31253.301536537426	0
4	652	31274.313527361959	1
4	656	31340.755473490012	0
4	658	31374.70272570131	1
4	661	31464.895696456019	0
4	664	31565.17653412846	0
4	667	31853.841004015733	0
4	672	31908.642265736742	0
4	673	31919.524940487685	1
4	676	31973.73939948329	0
4	679	32416.766151598538	0
4	682	32525.254201502674	0
4	687	32602.322547340273	0
4	688	32625.158625140948	1
4	691	33043.852845547062	0
4	694	33100.593944263752	0
4	697	33281.951377601048	0
4	702	33325.953618661436	0
4	703	33353.070278531148	1
4	706	33554.356932356785	0
4	711	33639.501954717967	0
4	712	33651.056219345816	1
4	715	33807.766107570484	0
4	718	34068.739517115503	0
4	721	34140.307374366193	0
4	724	34212.399582992098	0
4	727	35322.570390874919	0
4	730	35631.635164058486	0
4	733	35760.813901590635	0
4	736	35815.540705260226	0
4	739	35951.874087970599	0
4	742	36296.186088298883	0
4	745	36342.729190907746	0
4	748	36392.076652801783	0
4	751	36612.400598768859	0
4	754	36965.76357808654	0
4	759	37060.374085912374	0
4	760	37072.625976424042	1
4	766	37132.759030263672	0
4	769	37142.345424716387	1
4	770	37165.915794224641	0
4	773	37433.853856996384	0
4	776	37939.03985116548	0
4	779	38229.198820885264	0
4	782	38948.885394915675	0
4	787	39320.179445112777	0
4	788	39335.770097426353	1
4	791	39479.401744019472	0
4	794	39524.446615548923	0
4	797	39878.423324630432	0
4	800	40230.497889065395	0
4	803	40594.51134809862	0
4	807	41151.977616823345	0
4	810	41183.418573575911	1
4	812	41214.891767848136	0
4	815	41372.598622208922	0
4	818	41475.142863605966	0
4	821	41521.465171177886	0
4	824	41588.586324362693	0
4	829	41826.584193748893	0
4	830	41833.962103859075	1
4	833	41887.598502127266	0
4	836	42065.604274598825	0
4	840	42514.160335139545	0
4	844	42548.238704701567	0
4	845	42548.786712233229	1
4	848	42619.24125309862	0
4	851	42911.978609389657	0

