version 2
run General-0-20171214-09:33:32-9412
attr configname General
attr datetime 20171214-09:33:32
attr experiment General
attr inifile carrefour.ini
attr iterationvars ""
attr iterationvarsf ""
attr measurement ""
attr network Carrefour
attr processid 9412
attr repetition 0
attr replication #0
attr resultdir results
attr runnumber 0
attr seedset 0
param **.lambda 1
param **.numeroCasse 5
param **.mu 10
param **.tipoSimulazione 0

vector 0 Carrefour.coda InterrivalStat:vector ETV
attr source Interarrivals
attr title "InterArrivals, vector"
vector 1 Carrefour.coda QueuingStat:vector ETV
attr source Queuing
attr title "Time in Queue, vector"
0	1	7	7
0	3	7.22866698813	0.22866698813
0	5	7.366767631361	0.138100643231
0	7	7.943170867678	0.576403236317
0	9	8.048882832939	0.105711965261
0	11	8.608734465031	0.559851632092
0	12	9.291643037488	0.682908572457
0	16	11.569393155699	2.277750118211
0	17	12.30509762448	0.735704468781
0	21	13.236647408433	0.931549783953
0	22	13.748867110163	0.51221970173
0	23	13.769774832443	0.02090772228
0	24	14.191981026149	0.422206193706
0	28	15.424667295999	1.23268626985
0	29	15.477779374591	0.053112078592
0	33	16.740513004772	1.262733630181
0	34	17.171117813189	0.430604808417
0	35	17.175673226581	0.004555413392
0	39	20.125710644678	2.950037418097
0	43	21.499436757359	1.373726112681
0	44	22.355311489985	0.855874732626
0	45	23.367611603058	1.012300113073
0	46	23.497530649888	0.12991904683
0	47	24.513988457576	1.016457807688
0	48	24.634111582673	0.120123125097
0	49	24.67711542834	0.043003845667
0	50	26.918218900488	2.241103472148
0	51	26.924833442177	0.006614541689
0	52	27.892999476331	0.968166034154
0	53	27.908229574906	0.015230098575
0	54	32.13275687647	4.224527301564
0	55	32.673089554695	0.540332678225
0	56	33.424017592035	0.75092803734
0	57	33.732456683106	0.308439091071
0	58	34.441759911511	0.709303228405
0	59	35.102269603584	0.660509692073
0	60	38.118711435536	3.016441831952
0	61	38.489104665381	0.370393229845
0	62	38.515226645401	0.02612198002
0	63	39.218710354221	0.70348370882
0	64	39.583668445218	0.364958090997
0	65	41.119021201482	1.535352756264
0	66	42.008436144459	0.889414942977
0	67	43.464473013821	1.456036869362
0	68	43.775605501959	0.311132488138
0	69	44.918021875505	1.142416373546
0	70	46.061192989899	1.143171114394
0	71	46.770342408739	0.70914941884
0	72	48.188602962254	1.418260553515
0	73	48.982897631411	0.794294669157
0	77	52.542818204303	3.559920572892
0	78	52.584504599106	0.041686394803
0	79	54.503525998224	1.919021399118
0	80	55.391785339853	0.888259341629
0	81	55.50501273838	0.113227398527
0	82	56.290924752774	0.785912014394
0	83	56.364744334912	0.073819582138
0	84	57.596665090945	1.231920756033
0	85	57.857063625803	0.260398534858
0	86	58.385184342751	0.528120716948
0	87	59.17585867917	0.790674336419
0	88	59.423992819849	0.248134140679
0	89	59.97020614939	0.546213329541
0	93	60.350746297925	0.380540148535
0	97	61.524296491345	1.17355019342
0	98	63.960891225398	2.436594734053
0	99	64.58535529985	0.624464074452
0	100	65.114694012178	0.529338712328
0	101	65.31726125986	0.202567247682
0	102	65.32958114499	0.01231988513
0	103	66.315594349269	0.986013204279
0	104	66.685504833824	0.369910484555
0	105	67.609700303628	0.924195469804
0	106	68.18666581797	0.576965514342
0	107	68.256902080773	0.070236262803
0	108	68.314345241474	0.057443160701
0	109	68.467337727447	0.152992485973
0	110	68.858219270602	0.390881543155
0	111	68.902851394635	0.044632124033
0	112	69.70061040685	0.797759012215
0	113	69.847602103308	0.146991696458
0	114	70.077394241092	0.229792137784
0	115	73.388958174789	3.311563933697
0	116	73.460681982228	0.071723807439
0	117	73.495965878683	0.035283896455
0	118	75.034961258725	1.538995380042
0	122	77.341745295361	2.306784036636
0	123	77.852164249255	0.510418953894
0	124	77.925183156461	0.073018907206
0	125	78.050672251513	0.125489095052
0	129	79.206187001183	1.15551474967
0	130	79.897759496823	0.69157249564
0	131	80.098716667264	0.200957170441
0	132	81.198004824582	1.099288157318
0	133	85.234623823179	4.036618998597
0	134	86.589597786977	1.354973963798
0	135	86.751912243213	0.162314456236
0	139	87.344829858075	0.592917614862
0	140	88.499977003822	1.155147145747
0	141	89.019034861024	0.519057857202
0	142	89.09906576988	0.080030908856
0	143	89.136236827885	0.037171058005
0	144	91.238319514453	2.102082686568
0	145	91.669917029532	0.431597515079
0	149	92.081184451055	0.411267421523
0	153	93.88279853646	1.801614085405
0	154	95.407306303937	1.524507767477
0	155	97.231422990727	1.82411668679
0	156	97.7784730465	0.547050055773
0	157	100.306303426934	2.527830380434
0	158	100.886815933731	0.580512506797
0	159	101.413180375713	0.526364441982
0	160	101.598426048574	0.185245672861
0	161	102.085229661536	0.486803612962
0	162	103.211520391858	1.126290730322
0	163	103.569408784504	0.357888392646
0	164	104.671909618401	1.102500833897
0	165	105.709755408214	1.037845789813
0	166	106.89813230936	1.188376901146
0	167	107.523996466228	0.625864156868
0	168	108.253540108633	0.729543642405
0	169	108.472349659652	0.218809551019
0	170	110.468936606945	1.996586947293
0	171	111.586385367726	1.117448760781
0	175	113.651640486591	2.065255118865
0	176	115.792383981553	2.140743494962
0	177	116.718121772604	0.925737791051
0	178	116.988658498492	0.270536725888
0	179	117.547680704618	0.559022206126
0	180	117.649630256709	0.101949552091
0	181	117.86608407686	0.216453820151
0	182	118.430400309875	0.564316233015
0	183	118.505500067165	0.07509975729
0	187	122.73670484103	4.231204773865
0	188	123.453868748426	0.717163907396
0	189	123.832005298614	0.378136550188
0	190	124.752760379993	0.920755081379
0	191	124.945948867641	0.193188487648
0	192	125.180279557949	0.234330690308
0	193	126.462894445123	1.282614887174
0	194	126.81028481391	0.347390368787
0	195	127.118192262632	0.307907448722
0	196	128.145310606916	1.027118344284
0	197	130.141717160052	1.996406553136
0	198	131.058242646761	0.916525486709
0	199	131.115699669009	0.057457022248
0	200	131.182471353345	0.066771684336
0	204	132.606996225653	1.424524872308
0	208	134.413902241672	1.806906016019
0	209	135.146154486934	0.732252245262
0	210	135.938510698921	0.792356211987
0	211	136.424354351062	0.485843652141
0	212	137.566401202233	1.142046851171
0	213	137.789008562855	0.222607360622
0	214	139.631242099537	1.842233536682
0	215	140.681228776728	1.049986677191
0	216	140.844334976333	0.163106199605
0	217	141.273750595602	0.429415619269
0	218	141.466190016835	0.192439421233
0	219	142.359114022882	0.892924006047
0	223	143.696410585903	1.337296563021
0	224	145.381613403687	1.685202817784
0	225	147.11412412162	1.732510717933
0	226	148.035287146808	0.921163025188
0	227	148.562458493302	0.527171346494
0	228	151.339128956928	2.776670463626
0	229	151.709456201086	0.370327244158
0	230	152.483779294609	0.774323093523
0	231	153.285418093908	0.801638799299
0	232	153.971545215591	0.686127121683
0	233	154.273346584411	0.30180136882
0	234	155.302908908492	1.029562324081
0	235	155.591258801985	0.288349893493
0	236	156.220100049392	0.628841247407
0	237	158.078883489512	1.85878344012
0	238	159.029918667703	0.951035178191
0	242	160.840050420371	1.810131752668
0	243	161.025660800651	0.18561038028
0	244	161.411573418833	0.385912618182
0	245	162.809640112342	1.398066693509
0	246	164.272652694456	1.463012582114
0	247	164.915072319044	0.642419624588
0	248	165.564304258355	0.649231939311
0	249	166.374930292213	0.810626033858
0	253	167.213092294317	0.838162002104
0	254	167.32357293017	0.110480635853
0	255	169.376766667987	2.053193737817
0	256	171.980435980728	2.603669312741
0	257	172.490959931212	0.510523950484
0	261	173.150457397571	0.659497466359
0	262	173.255471474009	0.105014076438
0	263	174.585548431093	1.330076957084
0	264	174.727194755897	0.141646324804
0	265	174.803631280544	0.076436524647
0	266	175.134163783506	0.330532502962
0	267	176.145097844106	1.0109340606
0	268	176.414541866087	0.269444021981
0	269	176.953450755156	0.538908889069
0	270	176.975494268598	0.022043513442
0	271	177.002261355235	0.026767086637
0	272	177.292858584668	0.290597229433
0	273	178.856191157393	1.563332572725
0	274	179.367292112036	0.511100954643
0	275	181.22362614747	1.856334035434
0	276	181.867062230361	0.643436082891
0	277	182.099251333983	0.232189103622
0	278	182.583229293916	0.483977959933
0	279	183.322869537511	0.739640243595
0	280	184.098497361133	0.775627823622
0	284	185.189156092776	1.090658731643
0	285	186.437891076937	1.248734984161
0	286	186.723069930544	0.285178853607
0	287	187.030052821277	0.306982890733
0	288	187.594205332275	0.564152510998
0	289	187.894910898918	0.300705566643
0	290	187.982705426762	0.087794527844
0	291	188.208221860055	0.225516433293
0	292	190.00349495905	1.795273098995
0	293	190.137102634693	0.133607675643
0	294	192.319796294682	2.182693659989
0	295	192.879079042006	0.559282747324
0	296	193.0526378488	0.173558806794
0	297	195.230171623817	2.177533775017
0	298	195.476350254737	0.24617863092
0	299	196.003750468915	0.527400214178
0	300	196.411751399943	0.408000931028
0	301	196.679602047692	0.267850647749
0	302	196.88770274104	0.208100693348
0	303	199.004386304647	2.116683563607
0	304	199.590170907739	0.585784603092
0	305	200.651409578208	1.061238670469
0	306	203.441188994161	2.789779415953
0	307	203.460108771236	0.018919777075
0	308	204.50313963617	1.043030864934
0	309	205.524274757367	1.021135121197
0	310	205.655757194572	0.131482437205
0	311	206.208625760052	0.55286856548
0	312	206.332070354267	0.123444594215
0	313	207.386351896332	1.054281542065
0	314	207.75448617655	0.368134280218
0	315	209.673726962732	1.919240786182
0	319	211.400983971351	1.727257008619
0	320	211.58566138994	0.184677418589
0	321	211.82787858244	0.2422171925
0	322	213.273308624171	1.445430041731
0	323	213.722449261694	0.449140637523
0	324	214.399898019378	0.677448757684
0	325	215.270712637132	0.870814617754
0	326	218.689826113521	3.419113476389
0	327	219.027138443612	0.337312330091
0	328	222.120990053333	3.093851609721
0	329	222.487018095648	0.366028042315
0	330	223.420488890548	0.9334707949
0	331	223.668938778788	0.24844988824
0	332	225.558111407569	1.889172628781
0	333	227.274045550787	1.715934143218
0	334	228.034229718513	0.760184167726
0	335	228.434805986307	0.400576267794
0	336	231.130288796812	2.695482810505
0	337	233.148814316967	2.018525520155
0	338	233.365398885246	0.216584568279
0	339	234.195711380539	0.830312495293
0	340	234.514466094368	0.318754713829
0	344	238.332587865577	3.818121771209
0	345	238.789201271342	0.456613405765
0	346	240.512060492099	1.722859220757
0	347	240.997370028561	0.485309536462
0	348	241.187704489852	0.190334461291
0	349	241.255992886794	0.068288396942
0	350	241.275406247789	0.019413360995
0	351	241.776581389829	0.50117514204
0	352	243.231429883889	1.45484849406
0	353	245.436399513136	2.204969629247
0	354	246.216086728348	0.779687215212
0	355	247.055371821625	0.839285093277
0	359	249.07802561945	2.022653797825
0	366	256.216005931592	7.137980312142
0	367	258.959493185552	2.74348725396
0	368	260.851464220232	1.89197103468
0	369	263.294484407381	2.443020187149
0	370	264.58959818277	1.295113775389
0	371	264.724798903882	0.135200721112
0	372	265.510643170857	0.785844266975
0	373	266.334393730609	0.823750559752
0	374	267.108617238047	0.774223507438
0	375	267.187160655069	0.078543417022
0	376	268.062792242405	0.875631587336
0	377	269.203024178518	1.140231936113
0	381	269.691103711748	0.48807953323
0	382	270.171467675969	0.480363964221
0	383	271.023758887703	0.852291211734
0	384	272.351334677534	1.327575789831
0	385	275.440623589525	3.089288911991
0	386	275.963380440837	0.522756851312
0	387	278.069817643279	2.106437202442
0	388	278.576805694728	0.506988051449
0	389	279.262736647909	0.685930953181
0	390	280.667182513259	1.40444586535
0	391	282.422440273257	1.755257759998
0	392	282.497075831829	0.074635558572
0	393	282.589151826475	0.092075994646
0	394	284.327823882228	1.738672055753
0	395	286.22277067991	1.894946797682
0	396	286.925176433416	0.702405753506
0	397	286.986959276683	0.061782843267
0	398	287.221056075971	0.234096799288
0	399	287.264596406609	0.043540330638
0	400	287.640017761205	0.375421354596
0	401	289.966046593262	2.326028832057
0	402	291.57664362049	1.610597027228
0	403	291.5982440488	0.02160042831
0	404	292.225406340843	0.627162292043
0	405	293.15371627128	0.928309930437
0	406	293.343331069266	0.189614797986
0	407	295.022619086236	1.67928801697
0	408	295.518301499701	0.495682413465
0	409	296.030730476461	0.51242897676
0	410	296.454711366841	0.42398089038
0	411	297.223762675726	0.769051308885
0	412	297.783810146489	0.560047470763
0	413	298.40139091313	0.617580766641
0	414	298.553884368641	0.152493455511
0	415	299.129299543873	0.575415175232
0	419	301.772396077103	2.64309653323
0	420	304.274020819089	2.501624741986
0	421	304.494627943858	0.220607124769
0	422	305.026916409952	0.532288466094
0	423	305.102053649712	0.07513723976
0	424	305.741059303152	0.63900565344
0	425	306.84948125186	1.108421948708
0	426	307.267635365513	0.418154113653
0	427	309.897643121545	2.630007756032
0	431	312.071560382417	2.173917260872
0	432	312.516220183274	0.444659800857
0	433	314.738274200722	2.222054017448
0	434	314.842215270148	0.103941069426
0	435	316.628146612953	1.785931342805
0	436	317.122809545167	0.494662932214
0	437	317.418086994365	0.295277449198
0	438	317.418694177465	0.0006071831
0	442	318.018554975237	0.599860797772
0	443	318.631258408348	0.612703433111
0	444	319.885124221901	1.253865813553
0	445	321.107072922315	1.221948700414
0	446	321.831788783967	0.724715861652
0	447	325.437688692624	3.605899908657
0	448	325.903162994761	0.465474302137
0	449	328.217993546179	2.314830551418
0	450	328.472668742914	0.254675196735
0	451	329.269936959227	0.797268216313
0	452	331.508205996927	2.2382690377
0	453	332.268435857399	0.760229860472
0	454	332.331891765094	0.063455907695
0	455	334.026518584144	1.69462681905
0	456	334.075320806441	0.048802222297
0	457	334.525671633332	0.450350826891
0	458	334.679800676636	0.154129043304
0	459	336.071235263051	1.391434586415
0	460	338.025140415061	1.95390515201
0	461	338.600938662083	0.575798247022
0	462	341.699608744907	3.098670082824
0	463	344.046840383989	2.347231639082
0	467	346.373370942635	2.326530558646
0	468	347.155427403061	0.782056460426
0	469	347.300617582952	0.145190179891
0	470	350.590231359902	3.28961377695
0	471	351.075267985654	0.485036625752
0	472	351.093858141312	0.018590155658
0	473	351.638101272506	0.544243131194
0	474	353.783239494156	2.14513822165
0	475	355.035263711807	1.252024217651
0	476	357.789171233166	2.753907521359
0	477	357.968772144218	0.179600911052
0	478	359.676269228654	1.707497084436
0	479	360.147286059145	0.471016830491
0	480	360.290620428076	0.143334368931
0	481	360.745460874091	0.454840446015
0	485	362.498458608375	1.752997734284
0	486	362.506090486698	0.007631878323
0	487	362.742072979774	0.235982493076
0	491	363.816493616017	1.074420636243
0	492	365.987390795105	2.170897179088
0	493	366.193643322685	0.20625252758
0	494	366.196179275854	0.002535953169
0	495	367.622319009564	1.42613973371
0	496	367.898287241378	0.275968231814
0	497	367.950887206077	0.052599964699
0	498	368.953925362924	1.003038156847
0	499	370.455450014769	1.501524651845
0	500	370.664542172232	0.209092157463
0	501	370.942979595884	0.278437423652
0	502	370.981230477308	0.038250881424
0	503	371.195531649588	0.21430117228
0	504	372.518885161725	1.323353512137
0	505	373.846471395298	1.327586233573
0	506	377.181585978479	3.335114583181
0	507	378.026341682762	0.844755704283
0	508	382.125421103925	4.099079421163
0	509	382.779350433326	0.653929329401
0	510	384.261473803525	1.482123370199
0	511	384.459191926994	0.197718123469
0	512	385.330547710266	0.871355783272
0	513	385.882003215845	0.551455505579
0	514	386.454630274425	0.57262705858
0	515	388.112639900817	1.658009626392
0	516	388.270051834156	0.157411933339
0	520	393.228115670661	4.958063836505
0	521	395.120149630167	1.892033959506
0	522	396.785374995238	1.665225365071
0	523	397.274231839032	0.488856843794
0	524	398.35548632782	1.081254488788
0	525	399.722042591122	1.366556263302
0	526	400.009984363376	0.287941772254
0	527	402.389358787263	2.379374423887
0	528	402.451908823164	0.062550035901
0	529	402.488106523478	0.036197700314
0	530	403.493839736623	1.005733213145
0	531	406.186833592377	2.692993855754
0	532	406.978555243216	0.791721650839
0	536	411.494396918153	4.515841674937
0	537	412.168120749563	0.67372383141
0	538	412.515501203819	0.347380454256
0	539	412.770731256852	0.255230053033
0	540	413.143250798346	0.372519541494
0	541	413.170293584383	0.027042786037
0	542	413.927253385726	0.756959801343
0	543	413.930062843285	0.002809457559
0	544	414.208410491455	0.27834764817
0	545	414.508862582323	0.300452090868
0	546	417.194043143676	2.685180561353
0	547	417.659191999859	0.465148856183
0	548	418.109087037644	0.449895037785
0	549	420.688717688159	2.579630650515
0	550	421.800766257358	1.112048569199
0	551	423.685890270149	1.885124012791
0	552	424.335119297114	0.649229026965
0	553	424.676688437314	0.3415691402
0	557	426.805147566237	2.128459128923
0	558	427.016688561816	0.211540995579
0	559	429.131154172703	2.114465610887
0	560	429.447390587611	0.316236414908
0	561	431.123933378242	1.676542790631
0	562	431.585426391461	0.461493013219
0	563	432.998773673165	1.413347281704
0	564	434.791111326483	1.792337653318
0	565	435.901143468074	1.110032141591
0	566	436.068615836596	0.167472368522
0	567	439.355664102395	3.287048265799
0	568	439.438658135911	0.082994033516
0	569	439.451511387732	0.012853251821
0	570	439.585507588259	0.133996200527
0	571	442.282436343393	2.696928755134
0	572	442.696847844949	0.414411501556
0	573	442.88673025318	0.189882408231
0	574	443.269012778643	0.382282525463
0	575	443.707770178044	0.438757399401
0	576	446.311701828609	2.603931650565
0	577	446.51272041012	0.201018581511
0	578	449.672669644784	3.159949234664
0	579	450.545991265817	0.873321621033
0	580	451.407490952348	0.861499686531
0	581	451.557968766087	0.150477813739
0	582	454.059491331363	2.501522565276
0	583	455.392215808969	1.332724477606
0	584	457.331875702978	1.939659894009
0	585	458.000447702718	0.66857199974
0	586	458.258740194741	0.258292492023
0	587	458.965349451861	0.70660925712
0	588	459.7488500156	0.783500563739
0	589	460.065504814979	0.316654799379
0	593	460.946702902429	0.88119808745
0	594	461.3421948064	0.395491903971
0	595	463.537098152057	2.194903345657
0	602	465.668658355748	2.131560203691
0	606	466.280165713021	0.611507357273
0	607	466.660280081833	0.380114368812
0	608	468.028120785755	1.367840703922
0	609	472.343688470487	4.315567684732
0	610	472.804770913843	0.461082443356
0	611	475.040089921878	2.235319008035
0	615	477.064167671837	2.024077749959
0	616	477.148669183078	0.084501511241
0	617	481.322266255401	4.173597072323
0	618	483.376625443892	2.054359188491
0	622	483.969998848396	0.593373404504
0	623	484.08401276135	0.114013912954
0	627	485.236100857419	1.152088096069
0	628	486.564446128029	1.32834527061
0	629	487.201852514774	0.637406386745
0	630	488.25378568468	1.051933169906
0	631	489.061595118745	0.807809434065
0	632	490.640105941549	1.578510822804
0	633	490.950688353416	0.310582411867
0	634	493.167126183656	2.21643783024
0	635	493.635954792205	0.468828608549
0	639	495.072487313955	1.43653252175
0	640	497.200151603409	2.127664289454
0	644	499.243290714584	2.043139111175
0	645	500.807979001174	1.56468828659
0	646	501.316474385063	0.508495383889
0	647	502.514233835109	1.197759450046
0	648	502.743562452194	0.229328617085
0	649	503.258807507576	0.515245055382
0	650	503.370288660818	0.111481153242
0	654	504.486223554082	1.115934893264
0	655	505.172407259865	0.686183705783
0	656	506.0011153767	0.828708116835
0	657	506.154963056202	0.153847679502
0	658	506.312564473706	0.157601417504
0	659	508.315584450299	2.003019976593
0	660	508.412899483439	0.09731503314
0	664	509.860990261926	1.448090778487
0	665	509.943469130749	0.082478868823
0	666	510.232816760778	0.289347630029
0	667	510.789787916973	0.556971156195
0	671	511.051106357325	0.261318440352
0	672	512.104566120224	1.053459762899
0	676	512.42790150511	0.323335384886
0	677	513.850541115034	1.422639609924
0	678	515.325213912055	1.474672797021
0	679	517.495382187624	2.170168275569
0	680	518.834944444472	1.339562256848
0	681	519.507920623865	0.672976179393
0	682	521.456122326877	1.948201703012
0	683	523.982986731312	2.526864404435
0	684	524.01657747841	0.033590747098
0	685	524.077871313565	0.061293835155
0	686	525.004012614455	0.92614130089
0	687	526.19623599713	1.192223382675
0	688	526.553830569266	0.357594572136
0	689	527.727265957906	1.17343538864
0	690	527.815571990135	0.088306032229
0	691	529.850489631113	2.034917640978
0	692	530.181228264296	0.330738633183
0	693	531.770414449659	1.589186185363
0	694	531.780512900309	0.01009845065
0	695	531.954483899831	0.173970999522
0	696	532.177151431848	0.222667532017
0	697	532.58888631625	0.411734884402
0	698	532.790786806139	0.201900489889
0	699	537.385814737098	4.595027930959
0	700	542.999221677029	5.613406939931
0	701	543.051663821	0.052442143971
0	702	543.418441083223	0.366777262223
0	703	544.787587886566	1.369146803343
0	704	545.039340468573	0.251752582007
0	705	545.693117843658	0.653777375085
0	706	545.957748175563	0.264630331905
0	707	547.429758664432	1.472010488869
0	708	547.726890364275	0.297131699843
0	709	548.76607600017	1.039185635895
0	710	549.081620078235	0.315544078065
0	714	551.75830239505	2.676682316815
0	715	552.172842054718	0.414539659668
0	716	553.587093836869	1.414251782151
0	717	555.007312745118	1.420218908249
0	718	555.383113151512	0.375800406394
0	719	556.093414115836	0.710300964324
0	720	556.254533524037	0.161119408201
0	721	556.500842925936	0.246309401899
0	722	559.093466865536	2.5926239396
0	723	560.304366461227	1.210899595691
0	724	560.631295106393	0.326928645166
0	728	561.713093082211	1.081797975818
0	732	564.085065720851	2.37197263864
0	736	567.190497713895	3.105431993044
0	737	568.741363772084	1.550866058189
0	738	568.956910817077	0.215547044993
0	739	569.596271091984	0.639360274907
0	740	571.388525430597	1.792254338613
0	741	572.282109371628	0.893583941031
0	742	575.471481408197	3.189372036569
0	743	575.920691588349	0.449210180152
0	744	576.035649131918	0.114957543569
0	745	576.53430028927	0.498651157352
0	746	577.822337150813	1.288036861543
0	747	580.519531102279	2.697193951466
0	748	583.604545496053	3.085014393774
0	749	584.423793780338	0.819248284285
0	750	585.216506780844	0.792713000506
0	751	585.429945456874	0.21343867603
0	755	587.616361806748	2.186416349874
0	756	587.862857886659	0.246496079911
0	757	588.811042109055	0.948184222396
0	758	588.817720282287	0.006678173232
0	759	589.421799636726	0.604079354439
0	760	591.619836277468	2.198036640742
0	761	593.327245125449	1.707408847981
0	762	593.340644961401	0.013399835952
0	763	595.299250437569	1.958605476168
0	764	597.018638892516	1.719388454947
0	765	597.281797022245	0.263158129729
0	766	597.673557026144	0.391760003899
0	767	597.827077763928	0.153520737784
0	768	598.576418619529	0.749340855601
0	769	599.173830996368	0.597412376839
0	770	599.224271491008	0.05044049464
0	771	599.443416584068	0.21914509306
0	772	599.886779794655	0.443363210587
0	773	599.914976716184	0.028196921529
0	774	600.449036238675	0.534059522491
0	778	601.880573183743	1.431536945068
0	779	602.635499951963	0.75492676822
0	780	602.890740201968	0.255240250005
0	784	603.176589920218	0.28584971825
0	785	603.385712498036	0.209122577818
0	786	603.609746160189	0.224033662153
0	787	604.947737216922	1.337991056733
0	788	605.121830741914	0.174093524992
0	789	605.278578349005	0.156747607091
0	790	606.646159811991	1.367581462986
0	791	606.957240578083	0.311080766092
0	795	607.486511777083	0.529271199
0	796	607.521052932647	0.034541155564
0	797	611.280187546726	3.759134614079
0	801	616.386381372563	5.106193825837
0	802	617.669309925753	1.28292855319
0	803	618.293638321183	0.62432839543
0	813	621.910751227234	3.617112906051
0	814	623.977292189356	2.066540962122
0	815	626.020579364715	2.043287175359
0	816	626.867208162776	0.846628798061
0	817	627.760315019834	0.893106857058
0	818	629.187365284838	1.427050265004
0	819	629.390302332265	0.202937047427
0	820	636.703366803897	7.313064471632
0	821	637.524284102242	0.820917298345
0	822	637.932982763755	0.408698661513
0	823	639.444783695865	1.51180093211
0	824	639.970194000534	0.525410304669
0	825	640.27711600282	0.306922002286
0	826	641.02218862774	0.74507262492
0	827	641.710326651646	0.688138023906
0	828	642.514693753723	0.804367102077
0	829	642.790047465834	0.275353712111
0	830	644.238243391826	1.448195925992
0	831	644.568991350037	0.330747958211
0	835	644.816914455112	0.247923105075
0	839	648.270736480229	3.453822025117
0	840	648.908886911908	0.638150431679
0	841	650.842437440146	1.933550528238
0	842	651.158485685797	0.316048245651
0	846	655.010957979114	3.852472293317
0	847	655.093548170654	0.08259019154
0	848	655.522998848774	0.42945067812
0	849	655.76893315819	0.245934309416
0	850	657.301546500124	1.532613341934
0	851	657.713430073697	0.411883573573
0	852	659.022993540416	1.309563466719
0	853	659.856258364587	0.833264824171
0	854	660.734220812765	0.877962448178
0	855	660.876353053225	0.14213224046
0	856	661.327128999189	0.450775945964
0	857	662.553895992269	1.22676699308
0	858	662.624570424771	0.070674432502
0	859	663.847051070038	1.222480645267
0	860	663.869106324601	0.022055254563
0	861	664.23084577345	0.361739448849
0	862	664.605308259554	0.374462486104
0	863	666.643048679638	2.037740420084
0	864	667.386280610646	0.743231931008
0	865	667.71826993631	0.331989325664
0	866	671.817164574718	4.098894638408
0	867	672.208945109183	0.391780534465
0	874	676.208720181176	3.999775071993
0	875	676.342560007012	0.133839825836
0	876	676.693220158819	0.350660151807
0	877	677.523915871765	0.830695712946
0	878	678.368440959243	0.844525087478
0	879	679.808885923005	1.440444963762
0	880	679.905467107059	0.096581184054
0	881	681.399014709122	1.493547602063
0	882	681.438193327455	0.039178618333
0	883	681.638046608012	0.199853280557
0	884	681.914894184471	0.276847576459
0	888	683.054367123183	1.139472938712
0	889	684.452902656781	1.398535533598
0	890	685.129133040037	0.676230383256
0	891	686.220180024359	1.091046984322
0	892	686.424405582552	0.204225558193
0	893	687.189835883178	0.765430300626
0	894	689.800673557418	2.61083767424
0	895	691.611888883168	1.81121532575
0	899	692.04111083648	0.429221953312
0	900	695.086184897806	3.045074061326
0	901	695.326346851951	0.240161954145
0	902	697.238432269793	1.912085417842
0	903	698.463218524311	1.224786254518
0	904	698.707247845514	0.244029321203
0	905	701.63973898187	2.932491136356
0	906	702.726502348537	1.086763366667
0	907	704.691055554167	1.96455320563
0	908	704.89485492651	0.203799372343
0	909	705.266633771829	0.371778845319
0	910	708.211425363454	2.944791591625
0	911	708.482504380263	0.271079016809
0	912	709.330474870538	0.847970490275
0	916	709.778164699753	0.447689829215
0	917	710.849178861721	1.071014161968
0	918	711.435460009709	0.586281147988
0	919	712.364168140921	0.928708131212
0	923	715.06491980296	2.700751662039
0	924	715.348715610574	0.283795807614
0	925	716.399458475561	1.050742864987
0	926	718.666721995985	2.267263520424
0	927	719.045225172559	0.378503176574
0	928	720.274119700254	1.228894527695
0	932	723.077434558916	2.803314858662
0	933	725.151228208244	2.073793649328
0	934	725.563956234395	0.412728026151
0	935	726.10254005879	0.538583824395
0	936	728.321058504706	2.218518445916
0	937	728.504888662172	0.183830157466
0	938	730.520646724864	2.015758062692
0	939	730.542023025867	0.021376301003
0	940	731.405959708555	0.863936682688
0	941	732.287629856665	0.88167014811
0	945	733.427281030361	1.139651173696
0	946	733.493306726256	0.066025695895
0	947	734.081421098985	0.588114372729
0	948	734.156789089584	0.075367990599
0	949	734.593357586802	0.436568497218
0	950	734.932340547511	0.338982960709
0	951	735.254868193169	0.322527645658
0	952	735.890048452075	0.635180258906
0	953	736.325561654576	0.435513202501
0	954	736.641576694293	0.316015039717
0	955	737.143263562329	0.501686868036
0	956	738.645003214821	1.501739652492
0	957	738.803259584032	0.158256369211
0	958	739.736197033143	0.932937449111
0	959	740.402550993955	0.666353960812
0	960	740.421406603475	0.01885560952
0	961	742.425268358558	2.003861755083
0	962	742.738273887505	0.313005528947
0	963	744.506542376835	1.76826848933
0	964	745.983110364231	1.476567987396
0	965	746.906136403358	0.923026039127
0	966	747.49349010939	0.587353706032
0	967	749.100498324346	1.607008214956
0	968	749.953556767549	0.853058443203
0	969	749.991130688106	0.037573920557
0	970	750.525050727363	0.533920039257
0	971	751.84633927828	1.321288550917
0	972	754.195528059055	2.349188780775
0	973	754.716102213727	0.520574154672
0	974	758.984451196619	4.268348982892
0	975	765.739411624928	6.754960428309
0	976	765.929722668595	0.190311043667
0	977	767.138364703361	1.208642034766
0	978	768.014740639163	0.876375935802
0	979	768.217463033763	0.2027223946
0	980	769.336510616138	1.119047582375
0	981	771.687175431373	2.350664815235
0	982	772.275701495937	0.588526064564
0	983	773.83836617678	1.562664680843
0	984	773.860110409346	0.021744232566
0	985	775.177226776638	1.317116367292
0	986	775.333047045936	0.155820269298
0	987	775.935181222709	0.602134176773
0	991	776.49788706374	0.562705841031
0	992	781.511736645241	5.013849581501
0	993	781.922126622137	0.410389976896
0	994	782.356864780834	0.434738158697
0	995	782.756858809887	0.399994029053
0	996	783.453862246492	0.697003436605
0	997	784.077455252955	0.623593006463
0	998	789.20177127651	5.124316023555
0	999	790.502533736834	1.300762460324
0	1000	790.574461272215	0.071927535381
0	1001	791.561131733477	0.986670461262
0	1002	791.565618940646	0.004487207169
0	1003	791.597450977898	0.031832037252
0	1004	792.402105271959	0.804654294061
0	1005	792.480776415483	0.078671143524
0	1006	792.592809369083	0.1120329536
0	1007	792.995409127128	0.402599758045
0	1008	797.229321562933	4.233912435805
0	1012	798.201609868901	0.972288305968
0	1013	799.910061085473	1.708451216572
0	1014	800.482920286804	0.572859201331
0	1015	800.863149591721	0.380229304917
0	1016	801.911623953091	1.04847436137
0	1017	802.272362994639	0.360739041548
0	1018	802.426695374389	0.15433237975
0	1019	802.595281842688	0.168586468299
0	1020	803.402144654583	0.806862811895
0	1021	803.825073207509	0.422928552926
0	1022	805.742178585443	1.917105377934
0	1023	808.10400858099	2.361829995547
0	1024	808.425924819212	0.321916238222
0	1025	809.973384300065	1.547459480853
0	1026	810.592507810455	0.61912351039
0	1027	811.199259774006	0.606751963551
0	1028	811.235299457874	0.036039683868
0	1029	811.958447042255	0.723147584381
0	1030	813.561442332675	1.60299529042
0	1031	814.943028636407	1.381586303732
0	1032	815.589443179859	0.646414543452
0	1033	817.578292279708	1.988849099849
0	1034	818.51967036375	0.941378084042
0	1035	818.916571887599	0.396901523849
0	1036	819.221368602838	0.304796715239
0	1037	819.520103701827	0.298735098989
0	1041	824.908629469216	5.388525767389
0	1042	827.118937400375	2.210307931159
0	1043	828.216856186222	1.097918785847
0	1047	829.088496678677	0.871640492455
0	1048	829.231469297862	0.142972619185
0	1049	829.315786948201	0.084317650339
0	1050	829.564463979058	0.248677030857
0	1051	829.908723898626	0.344259919568
0	1052	830.246932190266	0.33820829164
0	1053	830.711795622364	0.464863432098
0	1054	831.617494270652	0.905698648288
0	1055	833.710765590923	2.093271320271
0	1056	833.922644699936	0.211879109013
0	1057	834.165965380508	0.243320680572
0	1058	834.444692381211	0.278727000703
0	1059	835.191670044265	0.746977663054
0	1060	835.413135669354	0.221465625089
0	1061	838.657934346649	3.244798677295
0	1062	838.705093614124	0.047159267475
0	1066	839.542442576288	0.837348962164
0	1067	839.611998984412	0.069556408124
0	1068	840.850090457554	1.238091473142
0	1072	844.805694277656	3.955603820102
0	1073	847.402385391197	2.596691113541
0	1074	847.409325069448	0.006939678251
0	1078	849.068511031991	1.659185962543
0	1079	849.171343608574	0.102832576583
0	1080	852.933119537473	3.761775928899
0	1084	854.307965253351	1.374845715878
0	1085	856.982191585548	2.674226332197
0	1089	857.382222044329	0.400030458781
0	1093	857.776007792383	0.393785748054
0	1094	857.847624835479	0.071617043096
0	1095	858.348034089837	0.500409254358
0	1096	858.534580008679	0.186545918842
0	1097	858.834972793089	0.30039278441
0	1098	858.861093336764	0.026120543675
0	1099	859.587617369348	0.726524032584
0	1100	860.572085350952	0.984467981604
0	1104	861.236849801399	0.664764450447
0	1105	861.299329769674	0.062479968275
0	1109	867.944979883896	6.645650114222
0	1110	869.166748965004	1.221769081108
0	1111	869.437450027371	0.270701062367
0	1112	869.562885099035	0.125435071664
0	1113	869.962701442427	0.399816343392
0	1114	869.980150520479	0.017449078052
0	1115	870.330530047177	0.350379526698
0	1119	870.933317098533	0.602787051356
0	1120	871.580651636508	0.647334537975
0	1121	872.719835674599	1.139184038091
0	1122	873.500153461531	0.780317786932
0	1123	874.29076188107	0.790608419539
0	1124	874.970512381273	0.679750500203
0	1125	875.071206959307	0.100694578034
0	1126	877.040802502766	1.969595543459
0	1127	879.20792145145	2.167118948684
0	1128	881.26822897256	2.06030752111
0	1129	881.81058572843	0.54235675587
0	1130	882.126783763873	0.316198035443
0	1131	882.489347161485	0.362563397612
0	1132	883.05135714645	0.562009984965
0	1133	883.062362946424	0.011005799974
0	1134	884.721817288863	1.659454342439
0	1138	886.60127516606	1.879457877197
0	1139	887.121724277445	0.520449111385
0	1140	888.070810976601	0.949086699156
0	1141	888.105242944358	0.034431967757
0	1142	889.149970270399	1.044727326041
0	1143	889.168620996068	0.018650725669
0	1144	889.870715843242	0.702094847174
0	1151	894.936018449132	5.06530260589
0	1152	895.080841936588	0.144823487456
0	1153	895.161519535947	0.080677599359
0	1154	895.28630805617	0.124788520223
0	1158	895.87847894543	0.59217088926
0	1159	897.124708245671	1.246229300241
0	1160	897.68289015804	0.558181912369
0	1161	899.695699656736	2.012809498696
0	1162	899.828509490314	0.132809833578
0	1163	900.046861100457	0.218351610143
0	1167	901.658153139705	1.611292039248
0	1168	901.678030779922	0.019877640217
0	1169	902.680629135266	1.002598355344
0	1170	903.160451709997	0.479822574731
0	1171	903.454883314188	0.294431604191
0	1172	904.835204859449	1.380321545261
0	1176	908.448912044785	3.613707185336
0	1177	909.618069620177	1.169157575392
0	1178	910.164756338939	0.546686718762
0	1179	910.230638100641	0.065881761702
0	1180	911.134055091894	0.903416991253
0	1181	911.745480757227	0.611425665333
0	1185	914.341410078613	2.595929321386
0	1186	914.82346882234	0.482058743727
0	1187	915.702942001588	0.879473179248
0	1191	917.048346807115	1.345404805527
0	1192	918.953968965872	1.905622158757
0	1193	919.898294037177	0.944325071305
0	1194	921.322225584185	1.423931547008
0	1195	921.796132187818	0.473906603633
0	1196	922.187654776956	0.391522589138
0	1197	923.140173214088	0.952518437132
0	1198	924.241658304655	1.101485090567
0	1199	924.402893419792	0.161235115137
0	1200	925.008239596938	0.605346177146
0	1201	925.800621168935	0.792381571997
0	1202	928.221393001112	2.420771832177
0	1203	930.168656987553	1.947263986441
0	1204	931.063565464708	0.894908477155
0	1208	931.683445082414	0.619879617706
0	1209	932.359536102622	0.676091020208
0	1213	934.251027153683	1.891491051061
0	1214	935.205048889285	0.954021735602
0	1218	937.544443224236	2.339394334951
0	1219	938.274199493204	0.729756268968
0	1220	939.252789306394	0.97858981319
0	1221	939.61696992461	0.364180618216
0	1225	940.824095401331	1.207125476721
0	1226	941.552476402496	0.728381001165
0	1227	941.66230076243	0.109824359934
0	1228	942.119214241104	0.456913478674
0	1229	942.207593718037	0.088379476933
0	1233	943.877917622847	1.67032390481
0	1234	944.582119041722	0.704201418875
0	1235	947.213767977496	2.631648935774
0	1236	948.567526610888	1.353758633392
0	1237	949.749062521202	1.181535910314
0	1238	949.820251972849	0.071189451647
0	1239	949.865125401156	0.044873428307
0	1240	953.71399149584	3.848866094684
0	1241	954.351125410654	0.637133914814
0	1242	957.738483722012	3.387358311358
0	1243	957.961176708667	0.222692986655
0	1244	959.1159355141	1.154758805433
0	1245	959.24724497826	0.13130946416
0	1246	960.161814712777	0.914569734517
0	1247	960.215564797357	0.05375008458
0	1248	960.528105760865	0.312540963508
0	1249	962.662466880313	2.134361119448
0	1253	963.815440255065	1.152973374752
0	1254	965.28506088188	1.469620626815
0	1258	965.970539154593	0.685478272713
0	1259	966.644575584253	0.67403642966
0	1260	967.305727923732	0.661152339479
0	1261	967.505516405981	0.199788482249
0	1262	968.669434724843	1.163918318862
0	1263	970.268571600256	1.599136875413
0	1264	970.840997862147	0.572426261891
0	1265	971.682307985584	0.841310123437
0	1266	973.299300538875	1.616992553291
0	1267	973.499310735855	0.20001019698
0	1268	973.627123003469	0.127812267614
0	1269	974.438550363789	0.81142736032
0	1270	974.525301610416	0.086751246627
0	1271	974.584747412206	0.05944580179
0	1272	978.383240815825	3.798493403619
0	1273	978.862007598631	0.478766782806
0	1283	983.25047742486	4.388469826229
0	1287	984.355310381502	1.104832956642
0	1291	985.420163463679	1.064853082177
0	1292	985.945822343471	0.525658879792
0	1293	986.575104603232	0.629282259761
0	1294	987.064098836413	0.488994233181
0	1298	988.710697421839	1.646598585426
0	1299	990.369693878407	1.658996456568
0	1303	993.600809295161	3.231115416754
0	1304	994.149994874343	0.549185579182
0	1308	996.472683051879	2.322688177536
0	1309	998.882355590523	2.409672538644
0	1310	999.115473597897	0.233118007374
0	1311	999.598458703951	0.482985106054
0	1312	1000.918889491792	1.320430787841
0	1313	1002.340641264533	1.421751772741
0	1314	1005.086436336342	2.745795071809
0	1315	1005.5128247825	0.426388446158
0	1316	1005.585224819598	0.072400037098
0	1317	1006.670482702759	1.085257883161
0	1318	1006.766950142903	0.096467440144
0	1319	1007.118622539611	0.351672396708
0	1323	1009.501950299329	2.383327759718
0	1324	1009.661551273225	0.159600973896
0	1325	1010.177082588087	0.515531314862
0	1329	1010.630390913492	0.453308325405
0	1333	1012.074418617995	1.444027704503
0	1334	1012.382847339084	0.308428721089
0	1335	1013.715699228673	1.332851889589
0	1336	1013.776463589329	0.060764360656
0	1337	1015.233373534902	1.456909945573
0	1338	1015.713645338214	0.480271803312
0	1339	1016.046191655114	0.3325463169
0	1340	1017.267833208599	1.221641553485
0	1341	1017.417209909238	0.149376700639
0	1342	1018.487070481006	1.069860571768
0	1343	1019.753008485187	1.265938004181
0	1344	1022.038734480804	2.285725995617
0	1345	1022.09578522769	0.057050746886
0	1346	1023.242369028012	1.146583800322
0	1347	1023.739424259861	0.497055231849
0	1348	1024.618573847935	0.879149588074
0	1349	1027.655913064279	3.037339216344
0	1350	1028.478853543698	0.822940479419
0	1351	1028.747559804315	0.268706260617
0	1352	1029.740426615393	0.992866811078
0	1353	1030.299143774352	0.558717158959
0	1354	1032.445635121456	2.146491347104
0	1358	1035.192429157771	2.746794036315
0	1359	1035.762860750563	0.570431592792
0	1360	1038.279696170896	2.516835420333
0	1361	1040.263785377259	1.984089206363
0	1362	1040.427371759047	0.163586381788
0	1363	1041.191097473037	0.76372571399
0	1367	1044.105359845445	2.914262372408
0	1368	1047.187275390618	3.081915545173
0	1369	1047.518534030474	0.331258639856
0	1370	1048.153115399128	0.634581368654
0	1371	1048.43137255995	0.278257160822
0	1372	1049.758896710538	1.327524150588
0	1373	1049.88427460326	0.125377892722
0	1374	1050.421590687148	0.537316083888
0	1375	1050.991443965736	0.569853278588
0	1376	1051.33861732645	0.347173360714
0	1377	1051.95075276292	0.61213543647
0	1378	1052.006540446236	0.055787683316
0	1379	1052.079974706233	0.073434259997
0	1380	1054.540418744406	2.460444038173
0	1381	1054.613681199808	0.073262455402
0	1385	1055.128092238777	0.514411038969
0	1386	1055.376542565809	0.248450327032
0	1390	1057.34536922236	1.968826656551
0	1391	1059.077575893707	1.732206671347
0	1392	1059.345294378018	0.267718484311
0	1393	1060.783411498009	1.438117119991
0	1394	1061.713288212195	0.929876714186
0	1395	1066.025551668527	4.312263456332
0	1396	1066.543323187918	0.517771519391
0	1397	1068.075452129492	1.532128941574
0	1398	1070.344568840555	2.269116711063
0	1399	1071.664792696501	1.320223855946
0	1400	1072.199666833895	0.534874137394
0	1401	1072.825619443044	0.625952609149
0	1402	1073.848374945464	1.02275550242
0	1403	1073.872775793214	0.02440084775
0	1404	1073.93233202859	0.059556235376
0	1405	1073.957793495663	0.025461467073
0	1406	1074.174371097821	0.216577602158
0	1407	1074.177885013342	0.003513915521
0	1411	1074.961308995328	0.783423981986
0	1412	1078.304972322508	3.34366332718
0	1413	1078.769444906079	0.464472583571
0	1414	1079.596033720826	0.826588814747
0	1415	1080.084372599678	0.488338878852
0	1416	1080.303469824768	0.21909722509
0	1417	1083.092078669962	2.788608845194
0	1418	1083.184067001712	0.09198833175
0	1422	1084.966704388869	1.782637387157
0	1423	1087.283943860113	2.317239471244
0	1424	1087.447011976848	0.163068116735
0	1425	1088.307301354572	0.860289377724
0	1426	1088.665623879503	0.358322524931
0	1427	1088.877719523701	0.212095644198
0	1428	1088.910170400662	0.032450876961
0	1429	1089.473212530998	0.563042130336
0	1430	1090.461085246822	0.987872715824
0	1431	1090.799903334601	0.338818087779
0	1432	1091.156536568864	0.356633234263
0	1433	1092.835697958518	1.679161389654
0	1434	1094.085465438087	1.249767479569
0	1435	1095.76800393234	1.682538494253
0	1436	1096.92570968798	1.15770575564
0	1440	1098.252902364822	1.327192676842
0	1441	1098.672734098377	0.419831733555
0	1442	1103.929763470677	5.2570293723
0	1443	1103.992525107142	0.062761636465
0	1444	1104.137798481504	0.145273374362
0	1445	1105.057425392128	0.919626910624
0	1446	1106.114225586431	1.056800194303
0	1447	1107.244945320963	1.130719734532
0	1448	1109.068404871525	1.823459550562
0	1449	1110.015624834683	0.947219963158
0	1450	1110.875315256934	0.859690422251
0	1451	1111.86453646226	0.989221205326
0	1452	1112.430572935001	0.566036472741
0	1453	1114.219793402716	1.789220467715
0	1454	1115.918955466717	1.699162064001
0	1455	1117.350160113778	1.431204647061
0	1456	1119.46647609676	2.116315982982
0	1457	1119.828494553201	0.362018456441
0	1458	1122.496826577352	2.668332024151
0	1459	1122.70264954909	0.205822971738
0	1460	1124.166730009119	1.464080460029
0	1461	1125.226829658066	1.060099648947
0	1462	1126.68723503376	1.460405375694
0	1463	1127.436425511774	0.749190478014
0	1464	1131.324319349562	3.887893837788
0	1465	1131.433946596934	0.109627247372
0	1466	1133.227078522533	1.793131925599
0	1467	1134.716051891925	1.488973369392
0	1468	1134.764649890046	0.048597998121
0	1469	1135.354933664023	0.590283773977
0	1470	1135.614556683858	0.259623019835
0	1471	1135.822469868881	0.207913185023
0	1472	1136.834562040512	1.012092171631
0	1473	1137.025054371244	0.190492330732
0	1474	1137.20856262154	0.183508250296
0	1475	1137.229480932779	0.020918311239
0	1476	1137.934009350347	0.704528417568
0	1480	1138.501953070195	0.567943719848
0	1481	1138.670381053308	0.168427983113
0	1482	1139.977624977771	1.307243924463
0	1483	1141.332600572578	1.354975594807
0	1484	1141.578973466065	0.246372893487
0	1485	1142.101783469167	0.522810003102
0	1486	1142.522234144227	0.42045067506
0	1487	1142.738058678482	0.215824534255
0	1488	1143.8790248458	1.140966167318
0	1492	1145.616416161271	1.737391315471
0	1493	1147.356616757833	1.740200596562
0	1494	1149.869628673415	2.513011915582
0	1495	1150.363631216252	0.494002542837
0	1499	1152.886779446826	2.523148230574
0	1500	1154.492049857333	1.605270410507
0	1501	1154.784406754211	0.292356896878
0	1502	1156.233939920038	1.449533165827
0	1506	1157.349689057193	1.115749137155
0	1507	1158.498252984086	1.148563926893
0	1508	1159.174828533667	0.676575549581
0	1515	1162.843928342941	3.669099809274
0	1516	1163.581171525402	0.737243182461
0	1517	1163.880278278479	0.299106753077
0	1518	1164.606514705449	0.72623642697
0	1519	1165.109351136743	0.502836431294
0	1520	1165.661277390866	0.551926254123
0	1521	1166.029635950379	0.368358559513
0	1522	1166.069448797794	0.039812847415
0	1523	1166.713336160238	0.643887362444
0	1524	1166.893356174981	0.180020014743
0	1525	1167.126910553197	0.233554378216
0	1526	1171.466651570231	4.339741017034
0	1527	1171.577666477615	0.111014907384
0	1528	1171.668663088249	0.090996610634
0	1529	1173.973466534841	2.304803446592
0	1530	1175.759130144341	1.7856636095
0	1531	1176.45416230632	0.695032161979
0	1532	1178.186705596611	1.732543290291
0	1533	1178.555586240661	0.36888064405
0	1534	1179.15179523027	0.596208989609
0	1535	1181.819323902063	2.667528671793
0	1536	1182.000115973829	0.180792071766
0	1537	1184.30544672225	2.305330748421
0	1538	1187.581117554834	3.275670832584
0	1539	1187.8774806447	0.296363089866
0	1543	1188.673424912159	0.795944267459
0	1544	1189.955078812827	1.281653900668
0	1545	1190.153623247283	0.198544434456
0	1546	1190.745700299866	0.592077052583
0	1547	1192.541364935321	1.795664635455
0	1548	1192.95545375586	0.414088820539
0	1549	1193.25461950114	0.29916574528
0	1550	1193.804067134062	0.549447632922
0	1551	1194.215549880743	0.411482746681
0	1552	1194.255723419664	0.040173538921
0	1553	1196.355708615092	2.099985195428
0	1554	1196.43053897471	0.074830359618
0	1555	1196.512653835871	0.082114861161
0	1556	1199.146817597096	2.634163761225
0	1557	1199.980383219755	0.833565622659
0	1558	1201.724448008477	1.744064788722
0	1559	1202.882547815704	1.158099807227
0	1560	1204.484769085602	1.602221269898
0	1561	1206.395051888934	1.910282803332
0	1562	1206.543838879548	0.148786990614
0	1563	1206.596283733842	0.052444854294
0	1564	1206.820801391126	0.224517657284
0	1565	1207.53552143678	0.714720045654
0	1566	1210.709982999767	3.174461562987
0	1567	1211.443686659998	0.733703660231
0	1568	1211.721268943706	0.277582283708
0	1572	1214.672593382981	2.951324439275
0	1573	1215.72063570674	1.048042323759
0	1574	1216.292667433901	0.572031727161
0	1575	1217.825745927504	1.533078493603
0	1576	1218.444548357551	0.618802430047
0	1577	1219.881763145535	1.437214787984
0	1578	1220.518602062539	0.636838917004
0	1579	1221.249379234697	0.730777172158
0	1583	1223.049609050826	1.800229816129
0	1584	1223.058400676186	0.00879162536
0	1585	1224.203284044272	1.144883368086
0	1586	1224.228705527588	0.025421483316
0	1587	1224.515489960345	0.286784432757
0	1588	1225.570714915501	1.055224955156
0	1589	1225.597466553122	0.026751637621
0	1590	1225.777946331574	0.180479778452
0	1591	1225.980877845817	0.202931514243
0	1592	1226.536238777099	0.555360931282
0	1593	1227.474521235714	0.938282458615
0	1594	1227.773187567272	0.298666331558
0	1595	1228.470281701397	0.697094134125
0	1596	1228.758100665906	0.287818964509
0	1597	1229.151320199159	0.393219533253
0	1598	1229.494084554908	0.342764355749
0	1599	1229.53463725185	0.040552696942
0	1600	1230.405549350992	0.870912099142
0	1601	1230.949050507562	0.54350115657
0	1602	1231.663677636364	0.714627128802
0	1603	1232.276540056575	0.612862420211
0	1607	1232.602631563741	0.326091507166
0	1611	1233.566548502879	0.963916939138
0	1612	1234.162609295942	0.596060793063
0	1613	1234.669374223916	0.506764927974
0	1614	1237.433838528485	2.764464304569
0	1618	1237.826839105447	0.393000576962
0	1619	1238.167806424072	0.340967318625
0	1620	1238.794957032481	0.627150608409
0	1621	1241.61675319766	2.821796165179
0	1625	1243.963017876948	2.346264679288
0	1626	1244.052700787639	0.089682910691
0	1627	1244.56818736071	0.515486573071
0	1628	1246.709444089554	2.141256728844
0	1629	1248.710173757423	2.000729667869
0	1630	1249.562187449306	0.852013691883
0	1631	1249.641434346122	0.079246896816
0	1632	1250.200028461049	0.558594114927
0	1633	1251.027924383401	0.827895922352
0	1634	1252.451415502611	1.42349111921
0	1635	1253.269263297874	0.817847795263
0	1636	1253.360011868337	0.090748570463
0	1637	1253.828876150312	0.468864281975
0	1638	1254.303510000802	0.47463385049
0	1639	1255.722896776434	1.419386775632
0	1640	1257.839109387453	2.116212611019
0	1641	1258.235842345657	0.396732958204
0	1642	1258.480825260702	0.244982915045
0	1643	1259.12220480351	0.641379542808
0	1644	1259.870445051915	0.748240248405
0	1645	1260.154939085817	0.284494033902
0	1646	1262.006668128721	1.851729042904
0	1650	1264.404965340992	2.398297212271
0	1654	1264.65221240602	0.247247065028
0	1655	1265.253655688052	0.601443282032
0	1656	1265.611459678248	0.357803990196
0	1657	1266.767961929085	1.156502250837
0	1658	1267.038101556978	0.270139627893
0	1659	1267.18138563422	0.143284077242
0	1660	1267.366055966583	0.184670332363
0	1661	1268.468058247799	1.102002281216
0	1662	1269.325326895803	0.857268648004
0	1663	1269.52934197318	0.204015077377
0	1664	1271.117253437222	1.587911464042
0	1665	1272.787110054349	1.669856617127
0	1669	1275.814406568778	3.027296514429
0	1670	1276.675921421753	0.861514852975
0	1671	1277.200834367913	0.52491294616
0	1672	1277.566735546871	0.365901178958
0	1679	1279.458536762813	1.891801215942
0	1680	1279.576535708577	0.117998945764
0	1681	1280.559324763563	0.982789054986
0	1682	1280.784985544931	0.225660781368
0	1683	1281.963182639146	1.178197094215
0	1684	1283.141768302846	1.1785856637
0	1685	1283.213310602302	0.071542299456
0	1686	1283.826956768331	0.613646166029
0	1687	1284.824014806848	0.997058038517
0	1688	1285.958225713243	1.134210906395
0	1689	1286.068870929336	0.110645216093
0	1690	1286.161056968572	0.092186039236
0	1694	1287.349983334047	1.188926365475
0	1695	1287.459120831857	0.10913749781
0	1696	1288.874537398191	1.415416566334
0	1697	1289.104409321937	0.229871923746
0	1698	1292.666038541486	3.561629219549
0	1699	1293.246091345765	0.580052804279
0	1700	1293.902501900312	0.656410554547
0	1701	1294.365801614777	0.463299714465
0	1702	1299.253213622798	4.887412008021
0	1703	1299.457085337098	0.2038717143
0	1704	1299.51313631025	0.056050973152
0	1705	1301.95620086047	2.44306455022
0	1706	1304.251558978289	2.295358117819
0	1707	1305.570035583807	1.318476605518
0	1708	1305.862154028194	0.292118444387
0	1709	1306.062740740746	0.200586712552
0	1713	1307.151769014003	1.089028273257
0	1714	1307.669360756942	0.517591742939
0	1715	1308.525082531398	0.855721774456
0	1716	1309.444530186769	0.919447655371
0	1717	1309.95823121838	0.513701031611
0	1718	1312.673276515992	2.715045297612
0	1722	1313.211046790072	0.53777027408
0	1723	1313.312943290959	0.101896500887
0	1724	1314.056685620475	0.743742329516
0	1725	1314.885739440035	0.82905381956
0	1726	1315.921868538851	1.036129098816
0	1727	1317.365999301763	1.444130762912
0	1731	1321.746259924738	4.380260622975
0	1732	1321.881731411857	0.135471487119
0	1733	1323.750453625686	1.868722213829
0	1734	1326.247878081913	2.497424456227
0	1735	1328.596290035849	2.348411953936
0	1736	1332.727640943955	4.131350908106
0	1737	1333.787560906289	1.059919962334
0	1738	1334.219082323749	0.43152141746
0	1739	1335.471387523585	1.252305199836
0	1740	1335.848279530025	0.37689200644
0	1741	1336.495992638198	0.647713108173
0	1742	1337.691073646242	1.195081008044
0	1743	1339.331669991466	1.640596345224
0	1744	1339.519628823818	0.187958832352
0	1745	1340.954669077108	1.43504025329
0	1746	1341.349427597208	0.3947585201
0	1747	1342.367159741896	1.017732144688
0	1751	1345.679745266929	3.312585525033
0	1752	1346.192982873584	0.513237606655
0	1753	1346.256250767437	0.063267893853
0	1754	1346.538197529344	0.281946761907
0	1755	1346.834384710591	0.296187181247
0	1756	1348.318589168469	1.484204457878
0	1757	1349.464681730237	1.146092561768
0	1758	1350.21067897383	0.745997243593
0	1762	1351.725310739427	1.514631765597
0	1763	1352.478334495589	0.753023756162
0	1764	1352.710597325722	0.232262830133
0	1765	1353.336196053423	0.625598727701
0	1766	1353.503655299224	0.167459245801
0	1767	1354.9051382007	1.401482901476
0	1771	1357.154743843043	2.249605642343
0	1772	1357.500759309306	0.346015466263
0	1773	1358.891424155788	1.390664846482
0	1774	1359.182871082801	0.291446927013
0	1775	1359.198246238168	0.015375155367
0	1776	1362.176094285241	2.977848047073
0	1777	1363.484848315281	1.30875403004
0	1778	1363.594842545887	0.109994230606
0	1779	1363.636674118991	0.041831573104
0	1780	1363.717108088209	0.080433969218
0	1781	1364.06528299982	0.348174911611
0	1782	1364.30172650031	0.23644350049
0	1783	1364.416781763429	0.115055263119
0	1784	1365.318031634729	0.9012498713
0	1785	1365.917660381305	0.599628746576
0	1786	1366.286864449607	0.369204068302
0	1787	1367.644630632545	1.357766182938
0	1788	1367.710533433595	0.06590280105
0	1789	1376.240520036396	8.529986602801
0	1790	1376.865397638394	0.624877601998
0	1791	1376.972001721938	0.106604083544
0	1792	1377.561996680076	0.589994958138
0	1793	1382.240196787651	4.678200107575
0	1794	1382.907982350224	0.667785562573
0	1795	1383.468846022097	0.560863671873
0	1796	1384.654829161677	1.18598313958
0	1797	1386.639411568601	1.984582406924
0	1798	1388.433364032452	1.793952463851
0	1799	1389.428965722181	0.995601689729
0	1800	1390.179976371152	0.751010648971
0	1801	1390.79934295494	0.619366583788
0	1802	1392.751912958588	1.952570003648
0	1803	1392.806477132817	0.054564174229
0	1804	1392.957270456897	0.15079332408
0	1805	1395.798733305797	2.8414628489
0	1809	1398.302546063661	2.503812757864
0	1810	1398.467458769622	0.164912705961
0	1811	1398.820660430777	0.353201661155
0	1812	1400.045085348621	1.224424917844
0	1813	1400.120799878019	0.075714529398
0	1814	1404.038645795799	3.91784591778
0	1815	1407.551140104459	3.51249430866
0	1816	1407.739383074515	0.188242970056
0	1817	1408.639312927147	0.899929852632
0	1818	1409.072913921235	0.433600994088
0	1819	1410.762009441868	1.689095520633
0	1823	1414.716552612965	3.954543171097
0	1824	1414.821153242019	0.104600629054
0	1825	1415.113286956405	0.292133714386
0	1826	1415.160121204584	0.046834248179
0	1827	1415.808343351863	0.648222147279
0	1828	1416.28705253362	0.478709181757
0	1829	1416.393451298574	0.106398764954
0	1830	1416.795980128598	0.402528830024
0	1831	1419.189478622943	2.393498494345
0	1835	1420.206456927427	1.016978304484
0	1836	1422.807877863471	2.601420936044
0	1837	1423.917771185339	1.109893321868
0	1838	1425.26896728864	1.351196103301
0	1839	1425.270220380056	0.001253091416
0	1840	1427.376561933196	2.10634155314
0	1841	1428.375663297106	0.99910136391
0	1845	1429.209540919516	0.83387762241
0	1846	1431.499967228905	2.290426309389
0	1850	1435.16277092724	3.662803698335
0	1851	1435.212493254871	0.049722327631
0	1852	1435.928289086271	0.7157958314
0	1853	1436.135919748522	0.207630662251
0	1854	1437.579298232448	1.443378483926
0	1855	1437.952329016992	0.373030784544
0	1856	1439.056763452444	1.104434435452
0	1863	1442.100546137728	3.043782685284
0	1864	1443.925508361147	1.824962223419
0	1865	1444.969929113066	1.044420751919
0	1866	1445.236665583896	0.26673647083
0	1867	1446.581572357193	1.344906773297
0	1871	1446.938259625333	0.35668726814
0	1875	1447.350130460816	0.411870835483
0	1876	1447.894293949462	0.544163488646
0	1877	1449.731968155424	1.837674205962
0	1878	1450.067231622842	0.335263467418
0	1879	1450.137111052426	0.069879429584
0	1880	1451.52364466168	1.386533609254
0	1881	1453.345110051913	1.821465390233
0	1882	1453.411676817667	0.066566765754
0	1883	1453.547172144705	0.135495327038
0	1884	1453.608070190555	0.06089804585
0	1885	1454.929090358121	1.321020167566
0	1886	1455.073832738735	0.144742380614
0	1887	1456.903089203729	1.829256464994
0	1891	1459.529913728917	2.626824525188
0	1892	1459.809019908784	0.279106179867
0	1893	1461.356993951658	1.547974042874
0	1900	1464.009127010703	2.652133059045
0	1901	1464.071026388646	0.061899377943
0	1902	1465.717167138816	1.64614075017
0	1903	1465.845005008857	0.127837870041
0	1904	1466.071213800627	0.22620879177
0	1905	1467.499633298607	1.42841949798
0	1906	1467.904330102603	0.404696803996
0	1910	1468.375889182339	0.471559079736
0	1911	1468.437385268706	0.061496086367
0	1915	1469.79035677815	1.352971509444
0	1916	1471.542376467786	1.752019689636
0	1917	1471.835917378191	0.293540910405
0	1918	1473.550461346075	1.714543967884
0	1919	1473.856073520657	0.305612174582
0	1920	1475.736684741206	1.880611220549
0	1924	1478.005583057241	2.268898316035
0	1925	1478.830755066905	0.825172009664
0	1926	1479.759777959719	0.929022892814
0	1927	1481.507577322024	1.747799362305
0	1928	1482.924315108465	1.416737786441
0	1929	1483.699513340076	0.775198231611
0	1930	1483.914046903168	0.214533563092
0	1931	1483.932896854232	0.018849951064
0	1932	1484.200770962388	0.267874108156
0	1933	1484.529260636041	0.328489673653
0	1934	1486.010688243565	1.481427607524
0	1935	1486.117117921144	0.106429677579
0	1936	1487.45100331466	1.333885393516
0	1937	1487.586852651581	0.135849336921
0	1938	1488.057936020531	0.47108336895
0	1939	1488.236771577832	0.178835557301
0	1940	1488.529326964751	0.292555386919
0	1941	1489.037629459202	0.508302494451
0	1942	1489.779719529003	0.742090069801
0	1943	1490.344470036037	0.564750507034
0	1944	1491.940856720619	1.596386684582
0	1945	1492.2208613291	0.280004608481
0	1946	1494.059014267606	1.838152938506
0	1947	1494.394601742136	0.33558747453
0	1948	1494.831851905169	0.437250163033
0	1949	1495.014793313418	0.182941408249
0	1950	1495.145578669858	0.13078535644
0	1951	1496.410956533139	1.265377863281
0	1952	1497.27725540995	0.866298876811
0	1953	1500.010643790994	2.733388381044
0	1957	1500.469783249861	0.459139458867
0	1958	1501.268067780148	0.798284530287
0	1959	1501.658072380499	0.390004600351
0	1960	1501.935131045696	0.277058665197
0	1961	1502.678568658205	0.743437612509
0	1962	1504.428985456513	1.750416798308
0	1963	1504.445852312291	0.016866855778
0	1964	1504.762664551906	0.316812239615
0	1965	1505.066223906283	0.303559354377
0	1969	1506.146531487089	1.080307580806
0	1970	1506.954293690145	0.807762203056
0	1971	1508.629953525798	1.675659835653
0	1972	1508.799275069304	0.169321543506
0	1973	1509.510999459969	0.711724390665
0	1974	1509.790288464377	0.279289004408
0	1975	1510.749565083711	0.959276619334
0	1976	1514.403182128012	3.653617044301
0	1977	1514.468684531721	0.065502403709
0	1981	1515.588891162387	1.120206630666
0	1982	1515.957401051095	0.368509888708
0	1983	1516.430605442233	0.473204391138
0	1984	1516.971744857426	0.541139415193
0	1988	1517.465356232432	0.493611375006
0	1989	1517.83417897588	0.368822743448
0	1990	1518.642198446845	0.808019470965
0	1991	1518.729885000319	0.087686553474
0	1992	1522.255776150742	3.525891150423
0	1996	1524.076571316789	1.820795166047
0	2000	1524.413480773656	0.336909456867
0	2001	1528.783493610253	4.370012836597
0	2002	1529.583896600859	0.800402990606
0	2003	1530.347462787205	0.763566186346
0	2004	1530.351033003502	0.003570216297
0	2008	1530.997641131824	0.646608128322
0	2009	1531.274168104028	0.276526972204
0	2013	1534.55241451058	3.278246406552
0	2014	1536.054361095735	1.501946585155
0	2015	1536.340796612718	0.286435516983
0	2016	1536.871095206881	0.530298594163
0	2017	1536.997715462927	0.126620256046
0	2018	1537.129428913316	0.131713450389
0	2019	1537.738874615509	0.609445702193
0	2020	1538.524025209971	0.785150594462
0	2021	1538.639154251661	0.11512904169
0	2022	1539.045026660241	0.40587240858
0	2023	1539.407436415995	0.362409755754
0	2024	1540.023675967264	0.616239551269
0	2025	1542.057075280324	2.03339931306
0	2026	1543.183351154804	1.12627587448
0	2030	1543.838721399451	0.655370244647
0	2031	1545.023674848159	1.184953448708
0	2032	1545.604040095952	0.580365247793
0	2033	1545.95753488899	0.353494793038
0	2034	1548.226693033916	2.269158144926
0	2035	1549.915591970763	1.688898936847
0	2036	1550.276131153734	0.360539182971
0	2037	1550.436600597264	0.16046944353
0	2038	1552.522503042682	2.085902445418
0	2039	1552.944654372726	0.422151330044
0	2040	1553.142291637317	0.197637264591
0	2041	1553.392666943296	0.250375305979
0	2042	1553.831873517923	0.439206574627
0	2043	1558.283545883796	4.451672365873
0	2044	1558.438522825725	0.154976941929
0	2045	1559.261275962142	0.822753136417
0	2046	1559.881540015067	0.620264052925
0	2047	1561.047224149855	1.165684134788
0	2048	1561.279048671278	0.231824521423
0	2049	1566.558100627058	5.27905195578
0	2050	1566.826636797314	0.268536170256
0	2051	1568.02461333336	1.197976536046
0	2052	1568.549382938071	0.524769604711
0	2053	1569.868705512111	1.31932257404
0	2054	1570.384559551928	0.515854039817
0	2055	1572.770188760118	2.38562920819
0	2056	1573.834259816784	1.064071056666
0	2057	1574.316425413823	0.482165597039
0	2058	1577.021448404545	2.705022990722
0	2059	1578.179184359112	1.157735954567
0	2060	1578.356545836111	0.177361476999
0	2061	1578.400398778011	0.0438529419
0	2068	1581.847309912943	3.446911134932
0	2069	1582.002710371559	0.155400458616
0	2073	1582.723641519831	0.720931148272
0	2074	1583.234733585309	0.511092065478
0	2075	1583.453896986873	0.219163401564
0	2076	1584.148551098616	0.694654111743
0	2080	1586.75082877361	2.602277674994
0	2081	1588.258845631661	1.508016858051
0	2082	1589.413288726525	1.154443094864
0	2083	1589.432413724058	0.019124997533
0	2087	1590.535412138597	1.102998414539
0	2088	1591.332516641009	0.797104502412
0	2089	1591.345429351458	0.012912710449
0	2090	1592.217151828031	0.871722476573
0	2091	1592.247512414787	0.030360586756
0	2092	1593.220782105704	0.973269690917
0	2093	1593.440697720846	0.219915615142
0	2094	1594.269341584984	0.828643864138
0	2095	1596.144951251541	1.875609666557
0	2102	1599.082958616388	2.938007364847
0	2103	1599.31784825513	0.234889638742
0	2104	1599.437151592876	0.119303337746
0	2108	1599.801137135351	0.363985542475
0	2109	1601.93348337754	2.132346242189
0	2110	1602.465116109743	0.531632732203
0	2111	1603.162656053443	0.6975399437
0	2112	1603.942288419445	0.779632366002
0	2113	1606.171831702678	2.229543283233
0	2114	1606.533298942426	0.361467239748
0	2121	1608.606254298647	2.072955356221
0	2122	1608.943207514605	0.336953215958
0	2123	1610.508791170745	1.56558365614
0	2124	1610.706745673868	0.197954503123
0	2125	1612.015829015796	1.309083341928
0	2126	1612.772113034635	0.756284018839
0	2127	1613.591985278618	0.819872243983
0	2128	1613.777036911921	0.185051633303
0	2129	1613.8578353191	0.080798407179
0	2130	1614.490676766638	0.632841447538
0	2131	1616.399153867471	1.908477100833
0	2132	1616.849262765933	0.450108898462
0	2133	1619.851633995465	3.002371229532
0	2134	1621.687485933001	1.835851937536
0	2135	1621.810852796355	0.123366863354
0	2136	1623.637667611745	1.82681481539
0	2137	1624.013937043563	0.376269431818
0	2138	1624.469265574319	0.455328530756
0	2139	1626.439694094592	1.970428520273
0	2140	1626.931507573226	0.491813478634
0	2141	1628.676352686106	1.74484511288
0	2142	1629.070092692603	0.393740006497
0	2143	1629.247685696191	0.177593003588
0	2144	1630.104852860582	0.857167164391
0	2145	1631.585611616868	1.480758756286
0	2149	1633.350134061377	1.764522444509
0	2150	1634.080829940543	0.730695879166
0	2151	1638.097908698199	4.017078757656
0	2152	1638.355084879253	0.257176181054
0	2153	1638.691941882456	0.336857003203
0	2154	1642.878377407663	4.186435525207
0	2155	1644.677921751915	1.799544344252
0	2156	1644.75087906373	0.072957311815
0	2157	1647.277740583616	2.526861519886
0	2161	1648.764207939605	1.486467355989
0	2162	1649.522915142739	0.758707203134
0	2163	1650.123286694203	0.600371551464
0	2164	1650.507930816303	0.3846441221
0	2165	1650.555712646662	0.047781830359
0	2166	1651.60485201263	1.049139365968
0	2167	1651.680615059926	0.075763047296
0	2168	1651.796913095574	0.116298035648
0	2169	1652.36968063266	0.572767537086
0	2170	1653.079783083351	0.710102450691
0	2171	1653.642123384522	0.562340301171
0	2172	1654.201906597875	0.559783213353
0	2173	1655.077164913299	0.875258315424
0	2180	1661.226095059066	6.148930145767
0	2181	1661.819525369278	0.593430310212
0	2182	1669.136341599792	7.316816230514
0	2183	1669.642615610333	0.506274010541
0	2184	1671.081038900261	1.438423289928
0	2185	1671.443385725887	0.362346825626
0	2186	1671.906807797486	0.463422071599
0	2190	1672.820999039202	0.914191241716
0	2191	1674.994264783985	2.173265744783
0	2192	1676.615409977829	1.621145193844
0	2193	1677.496383283221	0.880973305392
0	2194	1677.572074269918	0.075690986697
0	2195	1677.713826504656	0.141752234738
0	2196	1680.099578312399	2.385751807743
0	2197	1680.244234531818	0.144656219419
0	2201	1682.349394352422	2.105159820604
0	2202	1683.603669685133	1.254275332711
0	2203	1683.997856384235	0.394186699102
0	2204	1684.598965615137	0.601109230902
0	2205	1684.789664259	0.190698643863
0	2206	1685.113671071501	0.324006812501
0	2207	1685.654817914619	0.541146843118
0	2208	1687.585500945298	1.930683030679
0	2209	1688.116159563362	0.530658618064
0	2210	1688.548172443226	0.432012879864
0	2211	1688.740038774498	0.191866331272
0	2212	1689.353837381586	0.613798607088
0	2213	1689.978552128853	0.624714747267
0	2214	1690.04943326099	0.070881132137
0	2215	1691.093755364893	1.044322103903
0	2216	1692.515895309774	1.422139944881
0	2217	1692.523567556427	0.007672246653
0	2218	1693.94746321905	1.423895662623
0	2219	1694.43394686651	0.48648364746
0	2220	1696.452467204337	2.018520337827
0	2221	1698.42961436861	1.977147164273
0	2222	1698.819246834505	0.389632465895
0	2226	1701.943291849997	3.124045015492
0	2227	1702.001374595243	0.058082745246
0	2228	1702.87393276261	0.872558167367
0	2229	1703.002875402	0.12894263939
0	2230	1703.300286784864	0.297411382864
0	2231	1705.535724966845	2.235438181981
0	2232	1705.832354390957	0.296629424112
0	2233	1707.70660701176	1.874252620803
0	2234	1708.599828185242	0.893221173482
0	2235	1708.696375336772	0.09654715153
0	2236	1712.403973650964	3.707598314192
0	2237	1713.150834449581	0.746860798617
0	2238	1713.821873075102	0.671038625521
0	2242	1714.821529744212	0.99965666911
0	2243	1715.781887656044	0.960357911832
0	2244	1717.926752438396	2.144864782352
0	2245	1718.225056223368	0.298303784972
0	2246	1719.501262030904	1.276205807536
0	2247	1720.164487934754	0.66322590385
0	2248	1722.176731997865	2.012244063111
0	2249	1722.743222502727	0.566490504862
0	2250	1724.003508421091	1.260285918364
0	2251	1724.380615159496	0.377106738405
0	2252	1724.45415064987	0.073535490374
0	2253	1725.382914507403	0.928763857533
0	2254	1725.49055865185	0.107644144447
0	2258	1726.138116754667	0.647558102817
0	2259	1726.69588071926	0.557763964593
0	2260	1726.895906263649	0.200025544389
0	2261	1727.254793430494	0.358887166845
0	2262	1729.206600097125	1.951806666631
0	2266	1730.499115767145	1.29251567002
0	2267	1730.864737660041	0.365621892896
0	2268	1732.983644054304	2.118906394263
0	2269	1734.127185803807	1.143541749503
0	2270	1735.389825050894	1.262639247087
0	2271	1735.810711842926	0.420886792032
0	2272	1737.218952152837	1.408240309911
0	2273	1737.883845471375	0.664893318538
0	2274	1738.171538887711	0.287693416336
0	2275	1740.235933944363	2.064395056652
0	2276	1740.737890877914	0.501956933551
0	2277	1741.06807289778	0.330182019866
0	2278	1742.667825052376	1.599752154596
0	2279	1742.905637234894	0.237812182518
0	2280	1744.18208128709	1.276444052196
0	2281	1744.50695685015	0.32487556306
0	2282	1744.956826095603	0.449869245453
0	2283	1745.177677191838	0.220851096235
0	2284	1746.311023554565	1.133346362727
0	2285	1747.814327492841	1.503303938276
0	2286	1748.128273446825	0.313945953984
0	2287	1748.458090488622	0.329817041797
0	2288	1748.635783023215	0.177692534593
0	2289	1750.663243912639	2.027460889424
0	2290	1751.435919132017	0.772675219378
0	2291	1751.707296511813	0.271377379796
0	2292	1752.302422253042	0.595125741229
0	2293	1753.189538682556	0.887116429514
0	2294	1753.908660643503	0.719121960947
0	2295	1754.578428767618	0.669768124115
0	2296	1754.946273208019	0.367844440401
0	2297	1755.204838833464	0.258565625445
0	2298	1755.243292492805	0.038453659341
0	2299	1755.882900513804	0.639608020999
0	2300	1756.104238456257	0.221337942453
0	2301	1756.209579457638	0.105341001381
0	2302	1757.05802830906	0.848448851422
0	2303	1757.830417474334	0.772389165274
0	2307	1759.493292342939	1.662874868605
0	2311	1762.505219183489	3.01192684055
0	2312	1762.769938245236	0.264719061747
0	2313	1762.870708211286	0.10076996605
0	2314	1764.017274696773	1.146566485487
0	2315	1764.652805697924	0.635531001151
0	2316	1764.837501023439	0.184695325515
0	2317	1765.079161348327	0.241660324888
0	2318	1765.64316723158	0.564005883253
0	2319	1765.852311861943	0.209144630363
0	2320	1766.078897622399	0.226585760456
0	2321	1766.928892873104	0.849995250705
0	2322	1767.588873850701	0.659980977597
0	2323	1767.873979427002	0.285105576301
0	2324	1769.488635996117	1.614656569115
0	2325	1770.825109189367	1.33647319325
0	2326	1770.93509159657	0.109982407203
0	2330	1771.487959906271	0.552868309701
0	2331	1771.620983594363	0.133023688092
0	2332	1772.50106362411	0.880080029747
0	2333	1772.523056180427	0.021992556317
0	2334	1773.584964994098	1.061908813671
0	2335	1774.028661828117	0.443696834019
0	2336	1774.609740511646	0.581078683529
0	2337	1775.312153441965	0.702412930319
0	2338	1775.360926425709	0.048772983744
0	2342	1779.833930744256	4.473004318547
0	2343	1780.031434903774	0.197504159518
0	2344	1781.226883920014	1.19544901624
0	2345	1781.801587397667	0.574703477653
0	2346	1782.899672064141	1.098084666474
0	2347	1783.009122811698	0.109450747557
0	2348	1783.124026355094	0.114903543396
0	2349	1783.190171098311	0.066144743217
0	2350	1783.377956217008	0.187785118697
0	2351	1783.609087792979	0.231131575971
0	2352	1785.433334553546	1.824246760567
0	2353	1787.390063694213	1.956729140667
0	2354	1789.462262196103	2.07219850189
0	2355	1790.066431903123	0.60416970702
0	2356	1791.166960889561	1.100528986438
0	2357	1795.173748963363	4.006788073802
0	2358	1795.600229575607	0.426480612244
0	2359	1795.880269879168	0.280040303561
0	2360	1797.050551415442	1.170281536274
0	2361	1799.700436964601	2.649885549159
0	2362	1800.118330703345	0.417893738744
0	2363	1800.487576438795	0.36924573545
0	2364	1801.427863192122	0.940286753327
0	2365	1801.51674364292	0.088880450798
0	2366	1802.936972394881	1.420228751961
0	2367	1803.73498513143	0.798012736549
0	2368	1804.311605990171	0.576620858741
0	2369	1804.752945212483	0.441339222312
0	2370	1805.942139633435	1.189194420952
0	2371	1806.287611692174	0.345472058739
0	2372	1806.501954555324	0.21434286315
0	2373	1806.532902432677	0.030947877353
0	2374	1806.986820691046	0.453918258369
0	2378	1811.491977867928	4.505157176882
0	2379	1811.513200265023	0.021222397095
0	2380	1812.058009556653	0.54480929163
0	2384	1816.652295613563	4.59428605691
0	2385	1817.451911171711	0.799615558148
0	2386	1817.59343373291	0.141522561199
0	2387	1818.343371112472	0.749937379562
0	2388	1818.776632363158	0.433261250686
0	2389	1818.969739742786	0.193107379628
0	2390	1819.052020724957	0.082280982171
0	2391	1819.184555826943	0.132535101986
0	2392	1819.441088404521	0.256532577578
0	2396	1820.263310003166	0.822221598645
0	2397	1820.642787957079	0.379477953913
0	2398	1820.876249483439	0.23346152636
0	2399	1820.94200607488	0.065756591441
0	2400	1821.385091506208	0.443085431328
0	2401	1822.075555912874	0.690464406666
0	2408	1822.929012014044	0.85345610117
0	2409	1823.122010796089	0.192998782045
0	2410	1823.732316505842	0.610305709753
0	2411	1823.894609271315	0.162292765473
0	2412	1827.303243987338	3.408634716023
0	2413	1833.807288591945	6.504044604607
0	2414	1835.362474912623	1.555186320678
0	2418	1837.730161024948	2.367686112325
0	2419	1838.024393605135	0.294232580187
0	2420	1838.412771494179	0.388377889044
0	2421	1838.424052339472	0.011280845293
0	2422	1838.538786548282	0.11473420881
0	2423	1843.797415676868	5.258629128586
0	2424	1845.198006846871	1.400591170003
0	2425	1847.251210703597	2.053203856726
0	2426	1849.881456122227	2.63024541863
0	2427	1851.182593308515	1.301137186288
0	2428	1853.451192690064	2.268599381549
0	2429	1856.661236787072	3.210044097008
0	2430	1856.964631651127	0.303394864055
0	2431	1857.138751327356	0.174119676229
0	2435	1859.328858606801	2.190107279445
0	2436	1862.210465028733	2.881606421932
0	2437	1862.556820574326	0.346355545593
0	2438	1863.497792367198	0.940971792872
0	2439	1863.613059800545	0.115267433347
0	2440	1864.263816804177	0.650757003632
0	2441	1865.906134425842	1.642317621665
0	2442	1865.917002782832	0.01086835699
0	2443	1867.967965525054	2.050962742222
0	2444	1867.973485726626	0.005520201572
0	2445	1870.992509850445	3.019024123819
0	2446	1871.385057952591	0.392548102146
0	2447	1871.620532041607	0.235474089016
0	2448	1872.095341648956	0.474809607349
0	2449	1872.616119711541	0.520778062585
0	2450	1872.722387129859	0.106267418318
0	2451	1873.794607467391	1.072220337532
0	2452	1874.385570243933	0.590962776542
0	2453	1875.30264010497	0.917069861037
0	2454	1875.623908379563	0.321268274593
0	2458	1875.969562187321	0.345653807758
0	2462	1877.406333768539	1.436771581218
0	2463	1877.770022240453	0.363688471914
0	2464	1878.012356695288	0.242334454835
0	2465	1878.213561687419	0.201204992131
0	2466	1878.216687732105	0.003126044686
0	2467	1881.874420744181	3.657733012076
0	2468	1882.368393281743	0.493972537562
0	2469	1882.855037101236	0.486643819493
0	2470	1884.333607419855	1.478570318619
0	2471	1884.551829085417	0.218221665562
0	2472	1884.574095943002	0.022266857585
0	2473	1886.529265215834	1.955169272832
0	2474	1887.022191948366	0.492926732532
0	2475	1887.730529448385	0.708337500019
0	2476	1888.420417916208	0.689888467823
0	2477	1889.761913024423	1.341495108215
0	2478	1890.45946304782	0.697550023397
0	2479	1891.525366872253	1.065903824433
0	2480	1892.036602526769	0.511235654516
0	2481	1892.844756591409	0.80815406464
0	2482	1893.745133608899	0.90037701749
0	2489	1894.607414262604	0.862280653705
0	2490	1896.336697882731	1.729283620127
0	2491	1896.509997793624	0.173299910893
0	2492	1898.221788008135	1.711790214511
0	2496	1898.849433777558	0.627645769423
0	2497	1901.737317239773	2.887883462215
0	2498	1902.863288517618	1.125971277845
0	2499	1903.269407136159	0.406118618541
0	2500	1904.1696772094	0.900270073241
0	2501	1904.437592664347	0.267915454947
0	2502	1904.597614800563	0.160022136216
0	2503	1907.033520388871	2.435905588308
0	2504	1907.313209565973	0.279689177102
0	2505	1907.474696657637	0.161487091664
0	2509	1910.171377254534	2.696680596897
0	2510	1910.473736106347	0.302358851813
0	2511	1911.679645954944	1.205909848597
0	2512	1911.823838235514	0.14419228057
0	2513	1911.952328607483	0.128490371969
0	2514	1913.590409948238	1.638081340755
0	2515	1914.935131942396	1.344721994158
0	2516	1915.454124133662	0.518992191266
0	2517	1915.544085362017	0.089961228355
0	2518	1916.274093143096	0.730007781079
0	2519	1916.590212293016	0.31611914992
0	2520	1921.70570999938	5.115497706364
0	2527	1923.874983749441	2.169273750061
0	2528	1925.250645881392	1.375662131951
0	2529	1927.318786381219	2.068140499827
0	2530	1927.567783248055	0.248996866836
0	2531	1927.761808230935	0.19402498288
0	2532	1931.494560773889	3.732752542954
0	2533	1932.242936997282	0.748376223393
0	2534	1937.982970864421	5.740033867139
0	2535	1938.600069911668	0.617099047247
0	2539	1939.437098091809	0.837028180141
0	2540	1939.659792937653	0.222694845844
0	2544	1940.84478617071	1.184993233057
0	2545	1940.868729977544	0.023943806834
0	2546	1941.458090151805	0.589360174261
0	2553	1946.613289945815	5.15519979401
0	2554	1948.48544747202	1.872157526205
0	2555	1949.256147431223	0.770699959203
0	2556	1951.070506892213	1.81435946099
0	2557	1951.455419655024	0.384912762811
0	2558	1953.751145410023	2.295725754999
0	2562	1955.511310576044	1.760165166021
0	2563	1956.138139855214	0.62682927917
0	2564	1956.163631123364	0.02549126815
0	2565	1956.966627970719	0.802996847355
0	2566	1961.831698556846	4.865070586127
0	2567	1962.051735360346	0.2200368035
0	2568	1962.310234562856	0.25849920251
0	2569	1962.457782681168	0.147548118312
0	2570	1962.472297767305	0.014515086137
0	2571	1962.613162182322	0.140864415017
0	2572	1963.709993628693	1.096831446371
0	2573	1964.035098337086	0.325104708393
0	2574	1964.740143583139	0.705045246053
0	2575	1966.661526602377	1.921383019238
0	2576	1973.369668335362	6.708141732985
0	2577	1973.459235625261	0.089567289899
0	2578	1974.069960515181	0.61072488992
0	2579	1974.301858842522	0.231898327341
0	2580	1974.862178958829	0.560320116307
0	2581	1976.417867794973	1.555688836144
0	2582	1976.460868653659	0.043000858686
0	2583	1976.753020043741	0.292151390082
0	2584	1977.024661783827	0.271641740086
0	2585	1977.046688571027	0.0220267872
0	2586	1978.096730011182	1.050041440155
0	2587	1978.149122897791	0.052392886609
0	2588	1978.175070498316	0.025947600525
0	2589	1979.409637389082	1.234566890766
0	2590	1979.455290491237	0.045653102155
0	2591	1979.732058238632	0.276767747395
0	2592	1980.787837336698	1.055779098066
0	2593	1982.545744421142	1.757907084444
0	2594	1984.18442714452	1.638682723378
0	2595	1984.438323440133	0.253896295613
0	2599	1985.972685652916	1.534362212783
0	2603	1987.802378993907	1.829693340991
0	2604	1988.292562966738	0.490183972831
0	2605	1990.565845622167	2.273282655429
0	2606	1992.734270557022	2.168424934855
0	2607	1994.245030152817	1.510759595795
0	2608	1994.471723576207	0.22669342339
0	2609	1995.18860477154	0.716881195333
0	2610	1995.857138871805	0.668534100265
0	2611	1996.022552633583	0.165413761778
0	2612	1997.003770309254	0.981217675671
0	2613	1997.403038185705	0.399267876451
0	2614	1997.769756638552	0.366718452847
0	2615	1997.868896812537	0.099140173985
0	2616	1998.190213153456	0.321316340919
0	2617	1998.677612729184	0.487399575728
0	2618	2000.023100850011	1.345488120827
0	2619	2000.730222099368	0.707121249357
0	2620	2000.982583935615	0.252361836247
0	2621	2001.62821852781	0.645634592195
0	2622	2001.934308773663	0.306090245853
0	2623	2003.393322917759	1.459014144096
0	2624	2004.283908148769	0.89058523101
0	2625	2004.551970838824	0.268062690055
0	2626	2005.707434718988	1.155463880164
0	2627	2006.032841794806	0.325407075818
0	2628	2006.270296842287	0.237455047481
0	2629	2007.008213604301	0.737916762014
0	2630	2011.343269808842	4.335056204541
0	2634	2012.652539578358	1.309269769516
0	2635	2013.277466426707	0.624926848349
0	2636	2013.653007331269	0.375540904562
0	2637	2014.879238175464	1.226230844195
0	2638	2014.959216888908	0.079978713444
0	2639	2015.231155800065	0.271938911157
0	2640	2016.8677654376	1.636609637535
0	2641	2017.662685570002	0.794920132402
0	2642	2018.459499091355	0.796813521353
0	2643	2018.578388962885	0.11888987153
0	2647	2019.868023239562	1.289634276677
0	2648	2020.952980675667	1.084957436105
0	2649	2021.202212402523	0.249231726856
0	2650	2022.106224562893	0.90401216037
0	2651	2023.058905262662	0.952680699769
0	2652	2023.151408898348	0.092503635686
0	2653	2023.332777375314	0.181368476966
0	2654	2023.415119931463	0.082342556149
0	2658	2024.659179165724	1.244059234261
0	2662	2025.408734156443	0.749554990719
0	2663	2026.030029311772	0.621295155329
0	2664	2028.265748675415	2.235719363643
0	2665	2028.772451356392	0.506702680977
0	2666	2030.467505665265	1.695054308873
0	2667	2030.716014009363	0.248508344098
0	2668	2031.761136026675	1.045122017312
0	2669	2036.237108390216	4.475972363541
0	2670	2037.420677384162	1.183568993946
0	2671	2038.782444602515	1.361767218353
0	2672	2039.486214793447	0.703770190932
0	2673	2039.521741466564	0.035526673117
0	2674	2040.831760173763	1.310018707199
0	2675	2040.935357527193	0.10359735343
0	2676	2041.32107850406	0.385720976867
0	2677	2044.283606008824	2.962527504764
0	2678	2044.362345543901	0.078739535077
0	2679	2048.389097058577	4.026751514676
0	2680	2048.882350629048	0.493253570471
0	2681	2050.749030557465	1.866679928417
0	2682	2051.708988101487	0.959957544022
0	2683	2052.860031809209	1.151043707722
0	2684	2055.525062721079	2.66503091187
0	2688	2056.690928797561	1.165866076482
0	2689	2057.12485149174	0.433922694179
0	2690	2057.49697565296	0.37212416122
0	2691	2060.02016905341	2.52319340045
0	2695	2061.261050224187	1.240881170777
0	2696	2061.505520111304	0.244469887117
0	2697	2063.291305604676	1.785785493372
0	2698	2063.991579397138	0.700273792462
0	2702	2066.395001825115	2.403422427977
0	2703	2067.079951469721	0.684949644606
0	2704	2067.233137683505	0.153186213784
0	2705	2068.772674655294	1.539536971789
0	2706	2069.343270418534	0.57059576324
0	2707	2069.952760094456	0.609489675922
0	2708	2070.851447473664	0.898687379208
0	2709	2071.712925507785	0.861478034121
0	2710	2072.249332080009	0.536406572224
0	2711	2074.897753735101	2.648421655092
0	2712	2074.928932235558	0.031178500457
0	2716	2077.374483850434	2.445551614876
0	2717	2077.859398425359	0.484914574925
[...]
1	16455	12706.249809391368	11436.720467418
1	16496	12733.429194162936	11462.311940726
1	16505	12740.497201313139	11467.710091259
1	16515	12745.870739317146	11470.056332748
1	16521	12749.214631812644	11472.538710391
1	16544	12772.416285852189	11495.215451484
1	16550	12776.438059232493	11498.871323686
1	16559	12779.77862676267	11500.32009
1	16582	12799.664775469244	11520.088239761
1	16585	12799.758143748308	11519.198818985
1	16606	12811.465875395385	11530.68088985
1	16618	12819.395087658301	11537.431905019
1	16621	12819.613753044251	11536.471984741
1	16659	12856.550450758096	11573.337140156
1	16676	12868.28032866526	11584.453371897
1	16690	12874.353050967202	11589.52903616
1	16694	12875.511170099819	11589.552944387
1	16720	12892.856393416761	11606.787522487
1	16735	12906.437849017552	11620.276792049
1	16767	12937.38192336947	11650.031940035
1	16805	12984.46772958038	11697.008608749
1	16811	12986.669364467942	11697.79482707
1	16818	12990.760870167657	11701.656460846
1	16828	12997.25339656928	11704.587358028
1	16832	12998.34214206775	11705.096050722
1	16837	13000.888518332056	11706.986016432
1	16850	13008.941463155561	11714.575661541
1	16869	13024.374031142107	11725.120817519
1	16891	13038.51087603856	11739.053790701
1	16916	13062.023229651999	11762.510093342
1	16929	13076.266904670078	11774.31070381
1	16937	13080.409132636925	11776.157573659
1	16971	13111.018596966084	11805.448561382
1	16977	13115.592450561355	11809.730296533
1	16980	13116.424753058172	11810.362012317
1	16998	13133.229435339655	11826.077666326
1	17012	13149.448507133793	11841.779146377
1	17025	13156.988621584575	11848.463539053
1	17041	13163.992003647865	11854.547473461
1	17045	13168.218764285999	11858.260533068
1	17064	13183.969019615193	11871.295743099
1	17082	13201.953244434676	11888.742197645
1	17088	13203.928689931775	11890.615746641
1	17091	13204.594753819687	11890.538068199
1	17098	13208.550512545738	11893.664773106
1	17113	13223.338129743243	11907.416261204
1	17127	13229.269388066064	11911.903388764
1	17143	13242.583506037854	11920.837246113
1	17152	13246.337650249974	11924.455918838
1	17160	13250.425906368916	11926.675452743
1	17190	13277.123670302162	11950.87579222
1	17205	13291.708318841424	11963.112028806
1	17211	13293.052254058614	11960.324613115
1	17217	13296.767270924678	11962.979710018
1	17220	13296.901335785912	11962.682253462
1	17225	13298.02647731643	11962.555089793
1	17229	13299.246221403664	11963.397941874
1	17240	13308.11593320774	11971.61994057
1	17248	13312.755872850459	11975.064799204
1	17281	13349.285672827076	12009.954002836
1	17287	13351.703338402721	12012.183709579
1	17291	13352.82842678997	12011.873757713
1	17298	13357.485469573993	12016.136041977
1	17313	13370.025645387868	12027.658485646
1	17318	13371.01946614561	12025.339720879
1	17331	13376.878208754664	12030.685225881
1	17348	13391.001207760687	12044.744956993
1	17351	13391.349546891006	12044.811349362
1	17366	13401.416749949444	12054.582365239
1	17377	13406.972967902472	12058.654378734
1	17397	13422.715693246254	12073.251011516
1	17408	13430.626821240401	12080.416142267
1	17419	13440.000325439897	12088.2750147
1	17429	13451.600172298142	12099.121837803
1	17442	13457.59828474128	12104.887687416
1	17453	13469.989650046863	12116.653453993
1	17457	13470.309190923761	12116.805535625
1	17487	13489.561788575853	12134.656650375
1	17505	13503.531291293146	12146.37654745
1	17511	13505.695880358655	12148.195121049
1	17554	13543.505842631714	12184.614418476
1	17559	13546.583654949124	12187.400783866
1	17565	13548.093383216462	12188.895136978
1	17579	13560.498310813133	12198.322216528
1	17586	13568.804857102052	12205.320008787
1	17591	13571.634683505592	12208.03984096
1	17597	13579.037700450245	12215.401026331
1	17631	13612.75416672931	12249.037058641
1	17649	13628.631517612253	12264.566234612
1	17675	13658.59209067021	12294.29036417
1	17678	13658.750195784275	12294.333414021
1	17685	13659.918824435992	12294.600792801
1	17693	13664.075872738383	12298.158212357
1	17697	13667.727217267923	12301.440352818
1	17706	13673.066124862343	12305.42149423
1	17729	13695.348746703478	12327.63821327
1	17737	13699.465944709498	12323.225424673
1	17741	13699.73154685742	12322.866149219
1	17752	13707.159454953372	12330.187453231
1	17757	13710.149473106019	12332.587476426
1	17760	13712.588122128167	12330.347925341
1	17763	13712.936132350638	12330.02815
1	17771	13716.906418085347	12333.437572063
1	17778	13723.875757558165	12339.220928396
1	17784	13731.219188007132	12344.579776439
1	17790	13735.350180001474	12346.916815969
1	17794	13736.509364064092	12347.080398342
1	17810	13745.624964153004	12355.444987782
1	17819	13753.136746175107	12362.33740322
1	17824	13754.533742001447	12361.781829043
1	17838	13771.361896362054	12378.555419229
1	17850	13783.112235385056	12390.154964928
1	17855	13784.777409599993	12388.978676294
1	17868	13796.391010415862	12398.088464352
1	17883	13808.907146966141	12410.439688197
1	17894	13818.280188528047	12419.459528097
1	17900	13820.383858630554	12420.338773282
1	17941	13849.298436301196	12449.177636423
1	17964	13867.187405624256	12463.148759828
1	17971	13870.455226409844	12462.904086305
1	17981	13875.984448446099	12468.245065372
1	17986	13879.275794430642	12470.636481503
1	17994	13887.524898046658	12478.451984125
1	17998	13888.394254877221	12477.632245435
1	18008	13897.764313883891	12483.047761271
1	18032	13915.965113093099	12501.143959851
1	18044	13921.955597891187	12506.842310935
1	18054	13931.235280141183	12516.075158937
1	18082	13952.904879039542	12537.096535688
1	18114	13981.411209764423	12565.124157231
1	18123	13987.266670810617	12570.873219512
1	18148	14016.781701689761	12599.985721561
1	18178	14041.36173297698	12622.172254354
1	18189	14046.708756782026	12626.502299855
1	18195	14048.767474528312	12625.959596665
1	18242	14083.258394737346	12659.340623552
1	18269	14110.336819930764	12685.067852642
1	18292	14128.453602131198	12703.183381751
1	18296	14132.484818912714	12705.10825698
1	18326	14152.615624864424	12724.239961567
1	18342	14168.456265250114	12739.246724331
1	18351	14173.259081073185	12741.759113844
1	18356	14179.900418578853	12744.737647652
1	18367	14186.088681575181	12750.87618832
1	18374	14188.487946342223	12752.559657256
1	18378	14191.173244070437	12755.037324322
1	18388	14198.402957707035	12760.823659475
1	18394	14203.259701599788	12765.307372583
1	18400	14204.922492013906	12765.865728561
1	18405	14208.380225829063	12766.279679691
1	18437	14237.973404106667	12794.047895746
1	18453	14251.796965695126	12806.827036582
1	18457	14256.046907029968	12810.810241446
1	18465	14261.843669358576	12815.262097001
1	18468	14263.103465121244	12816.165205496
1	18475	14266.988553475331	12819.638423015
1	18485	14272.503199237217	12824.608905288
1	18493	14278.09583747233	12828.363869317
1	18497	14279.593275564973	12829.526043942
1	18512	14292.791781735437	12842.654670683
1	18531	14303.052646779916	12851.529002118
1	18558	14323.630179607096	12870.285069555
1	18573	14337.168737995208	12883.757061178
1	18577	14340.169908590704	12886.622736446
1	18580	14341.722983961526	12888.114913771
1	18601	14354.183699889816	12899.254609532
1	18611	14362.661736226995	12907.587903488
1	18629	14374.173936974106	12917.27084777
1	18654	14393.603731305471	12934.073817577
1	18657	14396.761931218011	12936.952911309
1	18694	14425.284523319377	12963.927529368
1	18700	14428.532323455849	12964.523196445
1	18703	14429.247841310607	12965.176814922
1	18721	14444.688343300031	12978.971176161
1	18734	14451.943265104677	12986.098260096
1	18737	14454.004713261257	12987.933499461
1	18748	14460.777393378655	12993.27776008
1	18753	14464.192737618375	12996.288407516
1	18767	14471.189929471869	13002.81404029
1	18804	14508.202156137124	13039.764770868
1	18818	14520.315566516185	13050.525209738
1	18836	14533.489073546648	13061.946697079
1	18851	14543.092008136449	13071.256090758
1	18858	14548.204780249876	13074.654318904
1	18861	14549.108296882033	13075.252223361
1	18867	14551.675977431164	13075.93929269
1	18871	14552.138086367541	13074.13250331
1	18878	14558.689236516653	13079.85848145
1	18889	14566.051299771653	13086.291521812
1	18906	14577.999086758911	13096.491509437
1	18911	14579.647602567603	13096.723287459
1	18921	14584.732098893347	13101.032585553
1	18924	14585.760311134377	13101.846264231
1	18930	14589.486647034618	13105.55375018
1	18935	14590.077698822005	13105.87692786
1	18945	14596.668893266846	13112.139632631
1	18957	14605.360145459883	13119.349457216
1	18964	14610.075345153452	13123.958227232
1	18978	14618.930447227397	13131.479443913
1	18984	14623.348894189399	13135.762041538
1	18987	14623.399278852168	13135.341342832
1	19014	14656.281418815282	13168.044647237
1	19023	14660.555446196401	13172.026119232
1	19027	14664.25651652471	13175.218887066
1	19031	14665.019246144599	13175.239526616
1	19048	14674.163013418047	13183.818543382
1	19057	14682.080930980424	13190.14007426
1	19068	14691.715714976113	13199.494853647
1	19076	14699.266665201671	13205.207650934
1	19079	14701.575517998258	13207.180916256
1	19083	14703.082758338949	13208.250906434
1	19090	14707.421997282281	13212.407203969
1	19115	14723.783463902857	13228.637885233
1	19123	14730.166234316214	13233.755277783
1	19135	14738.447094126333	13241.169838716
1	19152	14754.873268990552	13254.8626252
1	19168	14776.520949094661	13276.051165845
1	19182	14785.460981183655	13284.192913404
1	19198	14796.050146025088	13294.392073645
1	19203	14799.215784451868	13297.280653406
1	19206	14800.065541603101	13297.386972945
1	19219	14811.174377787983	13306.745392331
1	19228	14818.784965725867	13314.339113414
1	19242	14827.738296386573	13322.975631835
1	19254	14836.382575456317	13331.31635155
1	19263	14840.447690944801	13334.301159458
1	19270	14845.920424664263	13338.966130974
1	19273	14848.39698599823	13339.767032472
1	19296	14864.3903581269	13355.591083058
1	19306	14869.782171444164	13360.271171984
1	19320	14877.336110570475	13367.545822106
1	19327	14884.35681072199	13373.607245638
1	19359	14919.15081327309	13404.747631145
1	19371	14928.280866583902	13413.812182052
1	19388	14939.22364185976	13423.634750697
1	19400	14941.920771883169	13425.963370832
1	19405	14944.459855884485	13428.029250442
1	19416	14951.556482708101	13434.584737851
1	19424	14953.623165847421	13436.157809615
1	19440	14965.878061614615	13448.043882639
1	19462	14984.415561163959	13465.773362717
1	19484	15010.15039572851	13491.420510728
1	19488	15011.566216779407	13489.310440629
1	19514	15029.429531496752	13505.35296018
1	19533	15044.51744341227	13520.103962639
1	19540	15049.072663307142	13520.289169697
1	19545	15053.863076811395	13524.279180211
1	19553	15059.741531305686	13529.394068518
1	19567	15066.345644283287	13535.99461128
1	19580	15071.538745978937	13540.541104847
1	19592	15080.508729261871	13549.234561158
1	19598	15082.052548489449	13547.500133979
1	19603	15084.623900315161	13548.569539219
1	19609	15085.79234435686	13549.451547744
1	19622	15094.293952664047	13557.422857457
1	19633	15103.702515576124	13566.704800113
1	19642	15107.72547345987	13570.596044547
1	19646	15108.099946395986	13570.36107178
1	19683	15138.968816688123	13600.444791478
1	19719	15161.688441606294	13623.049287355
1	19726	15168.1892246964	13629.144198036
1	19733	15172.118561557836	13632.711125142
1	19742	15177.53868547473	13637.515009507
1	19786	15220.053179607764	13677.996104327
1	19795	15225.503033533184	13682.319682378
1	19806	15231.905092494322	13688.066371095
1	19825	15239.916953453315	13694.893278605
1	19860	15281.318082729315	13735.714042633
1	19863	15283.679759154559	13737.722224266
1	19870	15289.199897591155	13740.973204557
1	19878	15297.321478446014	13747.405886475
1	19895	15309.1084878938	13758.83235674
1	19912	15322.230267491141	13771.793666894
1	19937	15340.200766332406	13787.67826329
1	19946	15347.31332948547	13794.368675113
1	19959	15355.127660122982	13801.985368486
1	19985	15377.165865286194	13823.773198343
1	20005	15402.486244031734	13848.654370514
1	20066	15462.05289957415	13903.76935369
1	20069	15463.101923663817	13904.663400838
1	20095	15484.18740637661	13924.926130414
1	20099	15484.799233169951	13924.917693155
1	20104	15486.721357289103	13925.674133139
1	20129	15517.346976666028	13956.067927995
1	20145	15534.10748049653	13967.549379869
1	20152	15536.730757101811	13969.904120304
1	20157	15540.336903938075	13972.312290605
1	20162	15543.903755960509	13975.354373022
1	20166	15544.270766353195	13974.402060841
1	20174	15553.028705666453	13982.644146115
1	20178	15554.154337240412	13981.38414848
1	20191	15563.322467926769	13989.48820811
1	20217	15579.04353192997	14004.727106516
1	20238	15598.856859087061	14021.835410683
1	20246	15602.558538961333	14024.379354602
1	20255	15606.761641358617	14028.405095523
1	20271	15619.683465711882	14041.283066934
1	20278	15621.919831318741	14040.072521406
1	20304	15656.8604188012	14074.85770843
1	20310	15660.420050514518	14077.696408995
1	20320	15662.908405174412	14079.673671589
1	20331	15667.376667215289	14083.922770228
1	20338	15671.666240881724	14087.517689783
1	20353	15680.978793176824	14094.227964403
1	20368	15690.936279348673	14102.677433717
1	20372	15693.954352925654	14104.541064199
1	20379	15701.27157788708	14111.839164163
1	20406	15722.27590615721	14131.740494019
1	20422	15730.698647485387	14139.366130844
1	20447	15748.459276917856	14157.113847566
1	20462	15763.875831131185	14171.658679303
1	20467	15772.212216113999	14179.964703699
1	20476	15777.163878410103	14183.943096304
1	20481	15779.322144615298	14185.881446894
1	20488	15781.293228162169	14187.023886577
1	20492	15782.936290425166	14186.791339174
1	20509	15791.0068678075	14191.923909191
1	20513	15792.395114746413	14193.077266491
1	20520	15801.654110801668	14202.216959209
1	20528	15808.479906943294	14208.678769808
1	20535	15813.732963648401	14211.799480271
1	20543	15815.832362290798	14213.367246181
1	20549	15819.179128444806	14216.016472391
1	20555	15822.167013861304	14218.224725442
1	20565	15826.811222257909	14220.639390555
1	20570	15832.104743342026	14225.5714444
1	20576	15834.861213208793	14226.25495891
1	20593	15847.98522165006	14239.042014135
1	20598	15852.115405455725	14241.606614285
1	20621	15868.796910056196	14258.090164382
1	20625	15870.775194430074	14258.759365414
1	20632	15873.53167029029	14260.759557256
1	20641	15878.953189214449	14265.361203936
1	20647	15883.109678908275	14269.332641996
1	20654	15890.416179203444	14276.558343884
1	20668	15899.925367059231	14285.434690293
1	20725	15953.039063626983	14336.63990976
1	20733	15959.467935787483	14342.618673022
1	20766	15996.719527836371	14376.867893841
1	20785	16013.335499281916	14391.648013349
1	20791	16015.824795624886	14394.013942829
1	20812	16025.646531683155	14402.008864071
1	20816	16029.468494593324	14405.45455755
1	20820	16030.178082978766	14405.708817404
1	20823	16031.373409868686	14404.933715774
1	20826	16032.47855527657	14405.547047703
1	20835	16038.08155970668	14409.405207021
1	20867	16062.24047171357	14433.170379021
1	20896	16094.990732431122	14465.743046735
1	20900	16096.63796071108	14466.53310785
1	20911	16103.41464813753	14471.829036521
1	20930	16113.859476228023	14480.509342167
1	20936	16118.165442682313	14484.084612742
1	20941	16119.557231618875	14481.459322921
1	20948	16123.136192010138	14484.781107131
1	20951	16124.998074451939	14486.306132569
1	20964	16136.334047646744	14493.455670239
1	20983	16149.94751148632	14505.269589734
1	20998	16160.13476394615	14515.383884882
1	21019	16178.568158906173	14531.290418323
1	21027	16183.951289862581	14535.187081923
1	21033	16190.732952350284	14541.210037208
1	21047	16201.578522693751	14551.455236
1	21051	16205.051904632478	14554.543973816
1	21055	16207.892821892657	14557.337109246
1	21061	16213.002697923034	14561.39784591
1	21089	16233.42225406422	14581.741639004
1	21097	16238.955863694521	14587.158950599
1	21107	16242.927675610779	14590.557994978
1	21111	16246.348821516813	14593.269038433
1	21118	16251.200969257217	14597.558845873
1	21126	16255.003464849636	14600.801558252
1	21130	16256.434400981285	14601.357236068
1	21149	16267.716675058327	14606.490579999
1	21158	16274.461439760729	14612.641914391
1	21182	16295.028226705654	14625.891885106
1	21185	16298.11385049312	14628.471234883
1	21197	16303.072429977356	14631.991391077
1	21206	16308.230955984269	14636.787570258
1	21225	16328.959669926237	14657.052862129
1	21270	16369.783350532031	14696.962351493
1	21282	16378.531319517559	14703.537054734
1	21300	16395.571552471858	14718.956142494
1	21317	16408.758902495616	14731.262519212
1	21326	16411.366684718513	14733.794610449
1	21330	16413.027265205292	14735.313438701
1	21339	16417.056416235268	14736.956837923
1	21348	16423.844698312824	14743.600463781
1	21353	16424.756449826107	14742.407055474
1	21373	16439.398828440842	14755.795158756
1	21378	16443.705989312033	14759.708132928
1	21383	16444.680552922714	14760.081587308
1	21396	16456.803005346384	14772.013341087
1	21423	16484.405441861805	14799.29177079
1	21433	16492.114712399893	14806.459894485
1	21477	16542.253736236957	14854.668235292
1	21489	16557.626981051576	14869.510821488
1	21503	16568.653287070022	14880.105114627
1	21512	16575.369016940225	14886.628978166
1	21534	16594.134487600245	14904.780650219
1	21568	16626.340884337704	14936.362332209
1	21575	16631.938131694478	14941.888698433
1	21584	16637.737532382748	14946.643777018
1	21591	16642.290141896633	14949.774246587
1	21616	16662.085294963871	14969.561727407
1	21622	16666.290385610176	14972.342922391
1	21637	16677.871060612439	14983.437113746
1	21648	16684.686077349473	14988.233610145
1	21652	16687.18572497813	14988.75611061
1	21665	16698.919515484556	15000.10026865
1	21670	16704.798271447877	15002.854979598
1	21687	16723.996420333719	15021.995045738
1	21691	16724.89857036117	15022.024637599
1	21713	16742.547575179533	15039.544699778
1	21733	16757.639930890403	15054.339644106
1	21748	16771.611049027328	15066.07532406
1	21818	16839.637997589996	15133.805643199
1	21826	16852.579271870279	15144.872664859
1	21832	16854.609127543733	15146.009299358
1	21846	16865.802308688005	15157.105933351
1	21864	16880.438719051638	15168.034745401
1	21874	16887.95722255986	15174.80638811
1	21886	16899.151256322349	15185.329383247
1	21903	16915.898278331229	15201.076748587
1	21907	16916.864627926908	15201.082740271
1	21927	16935.57188028226	15217.645127844
1	21931	16936.453259184866	15218.228202961
1	21939	16941.648548921887	15222.147286891
1	21960	16959.013374124581	15238.84888619
1	21971	16961.921973332164	15239.745241334
1	21975	16962.52171461942	15239.778492117
1	21980	16965.810111870461	15241.806603449
1	21988	16970.679036477064	15246.298421318
1	22008	16980.420290981827	15255.966140332
1	22036	17003.637427578677	15278.254513071
1	22045	17010.350894436064	15284.860335784
1	22058	17021.311067598768	15295.172950844
1	22065	17025.311583546216	15298.615702827
1	22071	17030.494148578288	15303.598242315
1	22103	17053.690422773111	15326.435629343
1	22111	17059.237546323569	15330.030946226
1	22125	17075.145675037224	15344.64655927
1	22133	17086.028261699951	15355.16352404
1	22136	17086.408328715329	15353.424684661
1	22147	17097.636955197343	15363.509769394
1	22153	17098.662472752371	15363.272647701
1	22160	17107.970851485865	15372.160139643
1	22167	17112.713561582325	15375.494609429
1	22197	17134.956053872761	15397.072208401
1	22205	17139.139693238808	15400.968154351
1	22211	17140.452198433821	15400.216264489
1	22215	17142.785608416635	15402.047717539
1	22247	17163.86487432947	15422.796801432
1	22258	17172.32896317131	15429.661138119
1	22266	17181.89585764952	15438.990220415
1	22270	17182.349742028067	15438.167660741
1	22308	17221.65167565051	15477.1447188
1	22325	17234.89796646672	15489.941140371
1	22332	17239.171473023987	15493.993795832
1	22360	17259.574281734464	15513.26325818
1	22366	17267.773829434561	15519.959501942
1	22370	17269.656157373654	15521.527883927
1	22376	17273.239867001362	15524.781776513
1	22393	17285.512648515237	15536.876865492
1	22407	17295.442021414892	15544.778777502
1	22440	17322.269732740401	15570.833813608
1	22452	17328.87585728449	15577.168560773
1	22461	17334.113584679742	15581.811162427

