version 2
run General-0-20171214-09:28:57-6384
attr configname General
attr datetime 20171214-09:28:57
attr experiment General
attr inifile carrefour.ini
attr iterationvars ""
attr iterationvarsf ""
attr measurement ""
attr network Carrefour
attr processid 6384
attr repetition 0
attr replication #0
attr resultdir results
attr runnumber 0
attr seedset 0
param **.lambda 1
param **.numeroCasse 5
param **.mu 10
param **.tipoSimulazione 0

vector 0 Carrefour.coda InterrivalStat:vector ETV
attr source Interarrivals
attr title "InterArrivals, vector"
0	1	7	7
0	3	7.412701551006	0.412701551006
0	5	9.289430128916	1.87672857791
0	7	9.571337184575	0.281907055659
0	11	12.216920962109	2.645583777534
0	13	13.161192292045	0.944271329936
0	14	13.53818585897	0.376993566925
0	15	13.554477197017	0.016291338047
0	16	13.672383192158	0.117905995141
0	17	14.348817887143	0.676434694985
0	18	14.783908972847	0.435091085704
0	19	15.313753820365	0.529844847518
0	22	16.469597371853	1.155843551488
0	23	16.938902031915	0.469304660062
0	24	19.111935131366	2.173033099451
0	25	19.281281949242	0.169346817876
0	26	20.701020777888	1.419738828646
0	27	22.120193143495	1.419172365607
0	28	22.215217053903	0.095023910408
0	29	22.333195090905	0.117978037002
0	30	23.596778274314	1.263583183409
0	31	24.098590672086	0.501812397772
0	32	25.950750155331	1.852159483245
0	33	26.979708615946	1.028958460615
0	34	27.943495541476	0.96378692553
0	35	29.12177060059	1.178275059114
0	36	29.212218220309	0.090447619719
0	39	32.967840368874	3.755622148565
0	40	33.212094811732	0.244254442858
0	41	33.450554225334	0.238459413602
0	42	33.876641860532	0.426087635198
0	43	36.931735686545	3.055093826013
0	44	37.481957190624	0.550221504079
0	47	38.518748348985	1.036791158361
0	48	38.595127895552	0.076379546567
0	49	39.720284320789	1.125156425237
0	50	40.821820580793	1.101536260004
0	51	41.312010938954	0.490190358161
0	52	41.441660024891	0.129649085937
0	53	41.880665948189	0.439005923298
0	54	42.123072095939	0.24240614775
0	55	43.30429694156	1.181224845621
0	56	43.864613715622	0.560316774062
0	57	44.089245518393	0.224631802771
0	58	45.927233669722	1.837988151329
0	59	46.040187802689	0.112954132967
0	60	48.911876626599	2.87168882391
0	61	50.774326614064	1.862449987465
0	62	51.008190643409	0.233864029345
0	63	51.479493030658	0.471302387249
0	64	53.147229777363	1.667736746705
0	65	53.856753061751	0.709523284388
0	66	54.148110572632	0.291357510881
0	67	56.814609979465	2.666499406833
0	68	57.103780376456	0.289170396991
0	69	59.417337894643	2.313557518187
0	70	60.12591160469	0.708573710047
0	71	61.160538099308	1.034626494618
0	72	61.829317722242	0.668779622934
0	73	61.994533572699	0.165215850457
0	74	64.524406153603	2.529872580904
0	75	66.46046228902	1.936056135417
0	76	68.025207151464	1.564744862444
0	77	69.045535514191	1.020328362727
0	78	69.45802233493	0.412486820739
0	79	70.099827738137	0.641805403207
0	80	70.58027510594	0.480447367803
0	81	70.699681063913	0.119405957973
0	82	71.728471562363	1.02879049845
0	83	72.05082416413	0.322352601767
0	84	72.272673057341	0.221848893211
0	85	77.100247201342	4.827574144001
0	86	78.467308476427	1.367061275085
0	87	78.688926784318	0.221618307891
0	88	81.590286707749	2.901359923431
0	89	84.253499615181	2.663212907432
0	90	85.120752674808	0.867253059627
0	91	85.505882643672	0.385129968864
0	92	87.123124999277	1.617242355605
0	93	87.486549041814	0.363424042537
0	94	87.530804767002	0.044255725188
0	95	88.11831266445	0.587507897448
0	96	88.254532884857	0.136220220407
0	97	88.577350014115	0.322817129258
0	98	88.791527294417	0.214177280302
0	99	92.57708437385	3.785557079433
0	100	94.283438724929	1.706354351079
0	101	94.657398947134	0.373960222205
0	102	95.077882176079	0.420483228945
0	103	95.801312898301	0.723430722222
0	104	96.336876507957	0.535563609656
0	105	96.608209228062	0.271332720105
0	106	96.82970665207	0.221497424008
0	107	98.38426695421	1.55456030214
0	108	99.116959229034	0.732692274824
0	109	100.756079453034	1.639120224
0	110	101.558880796282	0.802801343248
0	111	101.907504513292	0.34862371701
0	112	103.715764885706	1.808260372414
0	113	104.177217246665	0.461452360959
0	114	104.329851182032	0.152633935367
0	115	105.437809441191	1.107958259159
0	116	106.237783195513	0.799973754322
0	117	106.685192533009	0.447409337496
0	118	106.725276537634	0.040084004625
0	119	107.738850472724	1.01357393509
0	120	109.500927149681	1.762076676957
0	121	110.344940157727	0.844013008046
0	122	117.434586651171	7.089646493444
0	123	118.437395632591	1.00280898142
0	124	119.862445547767	1.425049915176
0	125	120.400276607718	0.537831059951
0	126	121.216717668204	0.816441060486
0	127	122.438882317153	1.222164648949
0	128	123.840863706781	1.401981389628
0	129	124.221929638853	0.381065932072
0	130	124.438791573509	0.216861934656
0	131	125.608510928683	1.169719355174
0	132	126.738153272477	1.129642343794
0	133	126.821776583345	0.083623310868
0	134	126.988149483449	0.166372900104
0	135	128.028958137697	1.040808654248
0	136	128.769218061956	0.740259924259
0	137	129.666779164368	0.897561102412
0	138	129.90092068969	0.234141525322
0	139	130.196987066189	0.296066376499
0	140	131.929526998999	1.73253993281
0	141	131.933715159834	0.004188160835
0	142	134.500156535916	2.566441376082
0	143	136.059749760741	1.559593224825
0	144	137.087007493615	1.027257732874
0	145	137.101696099851	0.014688606236
0	146	139.829956292589	2.728260192738
0	147	141.004532236196	1.174575943607
0	148	142.679159149332	1.674626913136
0	149	145.902640375669	3.223481226337
0	150	146.474310554332	0.571670178663
0	151	147.080584980168	0.606274425836
0	152	149.28102071961	2.200435739442
0	153	149.708931651419	0.427910931809
0	154	150.893242545345	1.184310893926
0	155	151.042182329454	0.148939784109
0	156	156.928564570753	5.886382241299
0	157	157.050963885415	0.122399314662
0	158	157.665400032762	0.614436147347
0	159	157.897717844714	0.232317811952
0	160	158.286229233798	0.388511389084
0	161	158.952986746533	0.666757512735
0	162	160.305079880294	1.352093133761
0	163	160.980443853766	0.675363973472
0	164	161.013966302764	0.033522448998
0	165	161.794678869251	0.780712566487
0	166	164.386296998872	2.591618129621
0	167	165.119199005569	0.732902006697
0	168	166.016580301889	0.89738129632
0	169	166.189715536155	0.173135234266
0	170	166.905931675016	0.716216138861
0	171	167.402478764483	0.496547089467
0	172	168.248024537695	0.845545773212
0	173	168.414925227071	0.166900689376
0	174	168.870634796437	0.455709569366
0	175	170.124318537747	1.25368374131
0	176	170.891484969731	0.767166431984
0	177	172.427754834292	1.536269864561
0	178	172.987784258234	0.560029423942
0	179	174.794054948096	1.806270689862
0	180	175.92322757038	1.129172622284
0	181	176.00822573171	0.08499816133
0	182	176.043890804197	0.035665072487
0	183	179.082049461665	3.038158657468
0	184	181.236301309487	2.154251847822
0	185	182.335620352412	1.099319042925
0	186	182.513567866624	0.177947514212
0	187	183.394082489278	0.880514622654
0	188	185.128219089439	1.734136600161
0	189	185.602029483858	0.473810394419
0	190	188.097462974036	2.495433490178
0	191	188.164967865591	0.067504891555
0	192	189.682622609264	1.517654743673
0	193	189.847378876887	0.164756267623
0	194	190.238365360375	0.390986483488
0	195	190.626173100941	0.387807740566
0	196	191.317105885146	0.690932784205
0	197	194.878423201194	3.561317316048
0	198	195.671933130256	0.793509929062
0	199	196.492987663951	0.821054533695
0	200	196.60643099687	0.113443332919
0	201	198.30612335417	1.6996923573
0	202	198.494275715281	0.188152361111
0	203	198.722345843966	0.228070128685
0	204	198.912538801841	0.190192957875
0	205	199.033170938824	0.120632136983
0	206	199.887726164315	0.854555225491
0	207	201.294430098535	1.40670393422
0	208	202.205563678625	0.91113358009
0	209	203.103066953012	0.897503274387
0	210	203.201168346134	0.098101393122
0	211	203.420662256458	0.219493910324
0	212	204.479953446895	1.059291190437
0	213	206.203284836666	1.723331389771
0	214	209.082651095676	2.87936625901
0	215	210.880542298825	1.797891203149
0	216	211.746893523134	0.866351224309
0	217	213.015025969779	1.268132446645
0	218	213.436059032481	0.421033062702
0	219	215.159164211369	1.723105178888
0	220	215.477793840815	0.318629629446
0	221	216.022633012735	0.54483917192
0	222	218.957129774644	2.934496761909
0	223	219.062414029377	0.105284254733
0	224	220.53192864369	1.469514614313
0	225	220.584478771487	0.052550127797
0	226	220.660240439184	0.075761667697
0	227	222.838084168449	2.177843729265
0	228	224.502794081765	1.664709913316
0	229	224.521739750442	0.018945668677
0	230	224.986087726467	0.464347976025
0	231	225.208590895861	0.222503169394
0	232	225.730624333108	0.522033437247
0	233	226.570776175674	0.840151842566
0	234	227.182018795524	0.61124261985
0	235	227.616532417964	0.43451362244
0	236	229.21151862781	1.594986209846
0	237	230.744339018806	1.532820390996
0	238	231.386278964587	0.641939945781
0	239	232.300412035284	0.914133070697
0	240	233.611525722112	1.311113686828
0	241	234.775499010337	1.163973288225
0	242	235.528481238169	0.752982227832
0	243	235.719292384637	0.190811146468
0	244	235.814460323021	0.095167938384
0	245	237.134650466995	1.320190143974
0	246	237.635228977684	0.500578510689
0	247	239.452666530429	1.817437552745
0	248	240.2121879191	0.759521388671
0	249	241.021760376537	0.809572457437
0	250	242.298289160064	1.276528783527
0	251	242.506287588073	0.207998428009
0	252	244.533845432618	2.027557844545
0	253	245.079362343629	0.545516911011
0	254	245.143531220135	0.064168876506
0	255	246.846937357455	1.70340613732
0	256	247.132863626759	0.285926269304
0	257	247.444187621398	0.311323994639
0	258	247.838909874293	0.394722252895
0	259	248.874165112606	1.035255238313
0	260	249.890879180103	1.016714067497
0	261	254.04391241773	4.153033237627
0	262	254.871416745392	0.827504327662
0	263	256.845954381845	1.974537636453
0	264	258.404327706015	1.55837332417
0	265	258.448201458991	0.043873752976
0	266	259.296227209324	0.848025750333
0	267	261.22951713451	1.933289925186
0	268	261.277223342235	0.047706207725
0	269	262.780245037195	1.50302169496
0	270	264.593844485607	1.813599448412
0	271	264.685183185114	0.091338699507
0	272	264.735840975932	0.050657790818
0	273	265.14488766906	0.409046693128
0	274	265.968137621905	0.823249952845
0	275	266.488002688807	0.519865066902
0	276	267.017814072263	0.529811383456
0	277	268.955119024022	1.937304951759
0	278	270.694147844496	1.739028820474
0	279	270.840171592878	0.146023748382
0	280	271.473891909605	0.633720316727
0	281	273.219236498915	1.74534458931
0	282	274.871314827015	1.6520783281
0	283	274.931347517104	0.060032690089
0	284	275.101995654456	0.170648137352
0	285	275.990184747144	0.888189092688
0	286	276.045428733527	0.055243986383
0	287	278.82441710308	2.778988369553
0	288	279.140086428938	0.315669325858
0	289	280.072676441145	0.932590012207
0	290	280.388326428502	0.315649987357
0	291	281.46749420002	1.079167771518
0	292	281.996407771224	0.528913571204
0	293	283.928975910808	1.932568139584
0	294	284.710799656375	0.781823745567
0	295	284.716564222138	0.005764565763
0	296	285.036711408248	0.32014718611
0	297	285.656720163508	0.62000875526
0	298	285.786170649331	0.129450485823
0	299	288.985958416728	3.199787767397
0	300	289.708444837274	0.722486420546
0	301	290.24559515305	0.537150315776
0	302	292.044264642552	1.798669489502
0	303	292.128945002934	0.084680360382
0	304	292.483335136402	0.354390133468
0	305	292.792945241722	0.30961010532
0	306	295.850356408989	3.057411167267
0	307	296.865958529937	1.015602120948
0	308	296.99553880599	0.129580276053
0	309	297.473121393464	0.477582587474
0	310	297.913996113634	0.44087472017
0	311	298.052802941601	0.138806827967
0	312	298.153383644196	0.100580702595
0	313	300.678955683393	2.525572039197
0	314	300.909017821465	0.230062138072
0	315	301.17701762157	0.267999800105
0	316	301.377513711467	0.200496089897
0	317	302.307527907619	0.930014196152
0	318	302.511774039224	0.204246131605
0	319	305.457929623648	2.946155584424
0	320	310.392436868879	4.934507245231
0	321	310.465124192453	0.072687323574
0	322	312.749539140221	2.284414947768
0	323	313.999930354015	1.250391213794
0	324	315.831804145719	1.831873791704
0	325	318.675762263969	2.84395811825
0	326	318.781224622711	0.105462358742
0	327	319.3511837103	0.569959087589
0	328	319.490487508318	0.139303798018
0	329	319.900132318714	0.409644810396
0	330	320.484906029503	0.584773710789
0	331	320.68649576535	0.201589735847
0	332	321.524042069394	0.837546304044
0	333	321.592817522965	0.068775453571
0	334	321.768768425408	0.175950902443
0	335	322.992193646264	1.223425220856
0	336	323.844075487839	0.851881841575
0	337	325.566292343449	1.72221685561
0	338	326.547816444886	0.981524101437
0	339	328.391248240186	1.8434317953
0	340	328.719482347404	0.328234107218
0	341	329.782926843824	1.06344449642
0	342	330.216127447872	0.433200604048
0	343	332.320434966894	2.104307519022
0	344	334.022360546767	1.701925579873
0	345	334.804172925914	0.781812379147
0	346	335.107393299723	0.303220373809
0	347	335.24100481644	0.133611516717
0	348	336.29676658827	1.05576177183
0	349	339.528526044776	3.231759456506
0	350	340.431362557017	0.902836512241
0	351	342.445863959234	2.014501402217
0	352	342.565692790431	0.119828831197
0	353	343.813359835523	1.247667045092
0	354	345.208234310174	1.394874474651
0	355	345.850085717774	0.6418514076
0	356	346.507186970456	0.657101252682
0	357	349.839315157002	3.332128186546
0	358	350.000158011099	0.160842854097
0	359	351.732427514102	1.732269503003
0	360	352.421354431069	0.688926916967
0	361	352.590184745897	0.168830314828
0	362	352.643366904207	0.05318215831
0	363	353.530531814519	0.887164910312
0	364	355.302058982193	1.771527167674
0	365	358.958797906313	3.65673892412
0	366	359.311119804783	0.35232189847
0	367	360.897732582465	1.586612777682
0	368	361.2997811737	0.402048591235
0	369	362.52139686262	1.22161568892
0	370	362.780412391844	0.259015529224
0	371	363.103899861964	0.32348747012
0	372	363.418401808885	0.314501946921
0	373	364.204967188223	0.786565379338
0	374	365.43422312177	1.229255933547
0	375	365.82659616889	0.39237304712
0	376	367.194454247289	1.367858078399
0	377	367.561841086399	0.36738683911
0	378	369.371942475123	1.810101388724
0	379	370.263745861568	0.891803386445
0	380	370.942962684478	0.67921682291
0	381	371.834344458989	0.891381774511
0	382	371.884027593272	0.049683134283
0	383	372.360316555911	0.476288962639
0	384	374.664715263467	2.304398707556
0	385	375.121203470327	0.45648820686
0	386	375.423248850175	0.302045379848
0	387	375.490661175022	0.067412324847
0	388	375.783565047904	0.292903872882
0	389	376.168956994973	0.385391947069
0	390	376.512108899537	0.343151904564
0	391	376.657381906931	0.145273007394
0	392	377.695047557197	1.037665650266
0	393	378.094877678619	0.399830121422
0	394	378.236852597366	0.141974918747
0	395	378.887823207742	0.650970610376
0	396	380.623766528766	1.735943321024
0	397	380.918299706554	0.294533177788
0	398	382.497682962934	1.57938325638
0	399	383.28270830973	0.785025346796
0	400	383.450200668358	0.167492358628
0	401	384.732588198244	1.282387529886
0	402	387.583529125073	2.850940926829
0	403	387.762934386701	0.179405261628
0	404	389.773507028331	2.01057264163
0	405	390.393394986287	0.619887957956
0	406	390.892467035674	0.499072049387
0	407	392.010503722121	1.118036686447
0	408	392.127383309913	0.116879587792
0	409	393.14490346488	1.017520154967
0	410	393.749287583639	0.604384118759
0	411	396.574493386274	2.825205802635
0	412	397.194383839134	0.61989045286
0	413	399.581135357211	2.386751518077
0	414	400.650363391858	1.069228034647
0	415	401.550215901665	0.899852509807
0	416	401.657354209486	0.107138307821
0	417	401.682164157653	0.024809948167
0	418	402.312706371841	0.630542214188
0	419	402.770380624306	0.457674252465
0	420	403.981406742158	1.211026117852
0	421	404.922532046819	0.941125304661
0	422	405.426483671371	0.503951624552
0	423	406.296263731645	0.869780060274
0	424	406.950593679642	0.654329947997
0	425	407.061704722034	0.111111042392
0	426	408.083312767842	1.021608045808
0	427	409.2148597972	1.131547029358
0	428	409.946300554882	0.731440757682
0	429	410.084126187031	0.137825632149
0	430	410.90734545992	0.823219272889
0	431	412.453381041113	1.546035581193
0	432	414.743723646275	2.290342605162
0	433	415.39840586788	0.654682221605
0	434	417.606548889128	2.208143021248
0	435	417.765027751041	0.158478861913
0	436	417.910871176291	0.14584342525
0	437	418.694320985921	0.78344980963
0	438	418.973733564355	0.279412578434
0	439	419.227710720607	0.253977156252
0	440	419.385270649557	0.15755992895
0	441	419.685735836231	0.300465186674
0	442	420.688219614371	1.00248377814
0	443	421.584779714013	0.896560099642
0	444	423.906987798687	2.322208084674
0	445	424.123085446094	0.216097647407
0	446	424.298079984807	0.174994538713
0	447	426.502805166621	2.204725181814
0	448	427.553706146577	1.050900979956
0	449	427.672756238868	0.119050092291
0	450	428.092814311908	0.42005807304
0	451	428.251473547688	0.15865923578
0	452	428.55673593426	0.305262386572
0	453	429.042778805817	0.486042871557
0	454	429.954868840584	0.912090034767
0	455	430.300610783822	0.345741943238
0	456	433.200576127028	2.899965343206
0	457	433.336666489981	0.136090362953
0	458	434.516149498545	1.179483008564
0	459	434.598074122242	0.081924623697
0	460	435.487219303338	0.889145181096
0	461	435.93657843707	0.449359133732
0	462	435.956559796381	0.019981359311
0	463	436.621869221927	0.665309425546
0	464	436.951357313275	0.329488091348
0	465	437.15855375432	0.207196441045
0	466	437.763780046648	0.605226292328
0	467	438.11536064351	0.351580596862
0	468	438.450050034639	0.334689391129
0	469	439.639252664097	1.189202629458
0	470	440.168341096191	0.529088432094
0	471	440.279888394175	0.111547297984
0	472	442.158149563307	1.878261169132
0	473	442.16551485787	0.007365294563
0	474	442.901268728993	0.735753871123
0	475	446.97674815113	4.075479422137
0	476	447.812057522043	0.835309370913
0	477	449.585360661596	1.773303139553
0	478	450.390678307139	0.805317645543
0	479	451.098289345495	0.707611038356
0	480	451.357414052495	0.259124707
0	481	452.972129952422	1.614715899927
0	482	453.570014750133	0.597884797711
0	483	453.573587903349	0.003573153216
0	484	454.273885472567	0.700297569218
0	485	455.447183882534	1.173298409967
0	486	456.786178483657	1.338994601123
0	487	457.704113892007	0.91793540835
0	488	457.951567264272	0.247453372265
0	489	458.764644381776	0.813077117504
0	490	459.461619034917	0.696974653141
0	491	459.498841722848	0.037222687931
0	492	459.539241487423	0.040399764575
0	493	459.865397967669	0.326156480246
0	494	460.621016987816	0.755619020147
0	495	463.571616535542	2.950599547726
0	496	463.810212244806	0.238595709264
0	497	464.512965054114	0.702752809308
0	498	464.998603039225	0.485637985111
0	499	465.737940374839	0.739337335614
0	500	466.69862312209	0.960682747251
0	501	469.151178053646	2.452554931556
0	502	470.171094185395	1.019916131749
0	503	471.524614942476	1.353520757081
0	504	473.821796889017	2.297181946541
0	505	476.604712874012	2.782915984995
0	506	477.206371329752	0.60165845574
0	507	477.63817368786	0.431802358108
0	508	478.154231641536	0.516057953676
0	509	478.310169534761	0.155937893225
0	510	479.214786766671	0.90461723191
0	511	479.493959043841	0.27917227717
0	512	479.69860900937	0.204649965529
0	513	479.974478078834	0.275869069464
0	514	481.152844174025	1.178366095191
0	515	481.619866818824	0.467022644799
0	516	483.823763002254	2.20389618343
0	517	484.253277634903	0.429514632649
0	518	485.51271514569	1.259437510787
0	519	487.123120590672	1.610405444982
0	520	487.423582340266	0.300461749594
0	521	489.005785934871	1.582203594605
0	522	492.277085940581	3.27130000571
0	523	492.31591402266	0.038828082079
0	524	494.215199261947	1.899285239287
0	525	495.047910681757	0.83271141981
0	526	495.048727436328	0.000816754571
0	527	498.211443084601	3.162715648273
0	528	499.75354653002	1.542103445419
0	529	501.266802758561	1.513256228541
0	530	501.974058083697	0.707255325136
0	531	502.865506879599	0.891448795902
0	532	504.057179077389	1.19167219779
0	533	505.110068819671	1.052889742282
0	534	505.557350678857	0.447281859186
0	535	506.507319206155	0.949968527298
0	536	506.845611549638	0.338292343483
0	537	507.15753914297	0.311927593332
0	538	509.744965721862	2.587426578892
0	539	510.065180077647	0.320214355785
0	540	510.892353105772	0.827173028125
0	541	511.235721426692	0.34336832092
0	542	514.371064948056	3.135343521364
0	543	514.440703229994	0.069638281938
0	544	514.49578909569	0.055085865696
0	545	516.238734351362	1.742945255672
0	546	517.135673758307	0.896939406945
0	547	517.417324189086	0.281650430779
0	548	518.936399397622	1.519075208536
0	549	519.310325225658	0.373925828036
0	550	521.702527986144	2.392202760486
0	551	522.562287533954	0.85975954781
0	552	522.578789785646	0.016502251692
0	553	522.586753928194	0.007964142548
0	554	523.699518970929	1.112765042735
0	555	523.923036499784	0.223517528855
0	556	524.82703261048	0.903996110696
0	557	525.843956903703	1.016924293223
0	558	526.405733778096	0.561776874393
0	559	529.845156715309	3.439422937213
0	560	530.486865009994	0.641708294685
0	561	531.095566294371	0.608701284377
0	562	532.768365285925	1.672798991554
0	563	534.203394901291	1.435029615366
0	564	536.693612324281	2.49021742299
0	565	540.758014189683	4.064401865402
0	566	541.158854114509	0.400839924826
0	567	543.408068515704	2.249214401195
0	568	546.317973283049	2.909904767345
0	569	546.520345891848	0.202372608799
0	570	548.061964148259	1.541618256411
0	571	549.221670105361	1.159705957102
0	572	549.369109736023	0.147439630662
0	573	549.459675046205	0.090565310182
0	574	549.555872412039	0.096197365834
0	575	549.759702786948	0.203830374909
0	576	550.047510550211	0.287807763263
0	577	551.810309329736	1.762798779525
0	578	551.938765964386	0.12845663465
0	579	556.182419548592	4.243653584206
0	580	556.900784761073	0.718365212481
0	581	560.960488843257	4.059704082184
0	582	563.824824387628	2.864335544371
0	583	564.276104893238	0.45128050561
0	584	564.582629774429	0.306524881191
0	585	565.603340604431	1.020710830002
0	586	565.774348452605	0.171007848174
0	587	566.52486644721	0.750517994605
0	588	567.888089067333	1.363222620123
0	589	569.035442633485	1.147353566152
0	590	569.108239594024	0.072796960539
0	591	569.496228699744	0.38798910572
0	592	569.697238777635	0.201010077891
0	593	569.914495887259	0.217257109624
0	594	569.967999787885	0.053503900626
0	595	572.290681724775	2.32268193689
0	596	573.280032261695	0.98935053692
0	597	575.542907943742	2.262875682047
0	598	576.678769824288	1.135861880546
0	599	579.114026553712	2.435256729424
0	600	579.361424612285	0.247398058573
0	601	580.016134959535	0.65471034725
0	602	585.632356645415	5.61622168588
0	603	585.904633459149	0.272276813734
0	604	587.167466635918	1.262833176769
0	605	588.742344290066	1.574877654148
0	606	590.215959972605	1.473615682539
0	607	590.390426344608	0.174466372003
0	608	592.869521580334	2.479095235726
0	609	593.083599379016	0.214077798682
0	610	593.233287620353	0.149688241337
0	611	593.74761213503	0.514324514677
0	612	593.842701282307	0.095089147277
0	613	593.997028480221	0.154327197914
0	614	594.182230241	0.185201760779
0	615	594.24734511214	0.06511487114
0	616	596.167263343901	1.919918231761
0	617	596.566147120484	0.398883776583
0	618	599.848506819447	3.282359698963
0	619	600.370831990516	0.522325171069
0	620	601.432390413486	1.06155842297
0	621	602.699627298429	1.267236884943
0	622	603.66563169791	0.966004399481
0	623	603.910366305409	0.244734607499
0	624	605.585523621574	1.675157316165
0	625	605.853749496381	0.268225874807
0	626	607.356433477078	1.502683980697
0	627	607.455181463503	0.098747986425
0	628	608.549955917763	1.09477445426
0	629	609.281506745186	0.731550827423
0	630	609.580703029058	0.299196283872
0	631	610.525511702657	0.944808673599
0	632	611.68701601632	1.161504313663
0	633	613.100234081275	1.413218064955
0	634	613.742548019714	0.642313938439
0	635	613.92033688667	0.177788866956
0	636	614.524827331697	0.604490445027
0	637	615.821898075208	1.297070743511
0	638	617.677017518199	1.855119442991
0	639	617.946499289862	0.269481771663
0	640	618.055536311229	0.109037021367
0	641	618.171326722513	0.115790411284
0	642	618.505786825469	0.334460102956
0	643	619.454928440916	0.949141615447
0	644	620.20819621926	0.753267778344
0	645	621.63884185787	1.43064563861
0	646	622.12365780478	0.48481594691
0	647	624.566402701942	2.442744897162
0	648	626.920700245651	2.354297543709
0	649	627.322836221949	0.402135976298
0	650	627.651450990536	0.328614768587
0	651	627.950568355566	0.29911736503
0	652	628.865993945531	0.915425589965
0	653	628.92351521807	0.057521272539
0	654	629.134210245921	0.210695027851
0	655	630.314953370588	1.180743124667
0	656	630.534545186355	0.219591815767
0	657	631.394640890297	0.860095703942
0	658	632.010507777967	0.61586688767
0	659	632.331935267007	0.32142748904
0	660	633.808201637706	1.476266370699
0	661	634.121808050099	0.313606412393
0	662	635.108040864893	0.986232814794
0	663	635.240489318412	0.132448453519
0	664	635.602801925883	0.362312607471
0	665	635.644038812722	0.041236886839
0	666	635.811284455278	0.167245642556
0	667	635.894749735996	0.083465280718
0	668	637.276191932847	1.381442196851
0	669	637.550749357155	0.274557424308
0	670	638.672064390436	1.121315033281
0	671	638.678017301168	0.005952910732
0	672	639.564884549005	0.886867247837
0	673	641.163181126192	1.598296577187
0	674	643.611073021251	2.447891895059
0	675	645.82822339008	2.217150368829
0	676	647.12323667645	1.29501328637
0	677	647.744171792499	0.620935116049
0	678	648.76415444707	1.019982654571
0	679	648.881817412245	0.117662965175
0	680	648.895328255603	0.013510843358
0	681	649.668912962258	0.773584706655
0	682	653.806450837893	4.137537875635
0	683	654.159482342621	0.353031504728
0	684	654.614282153116	0.454799810495
0	685	655.864215487786	1.24993333467
0	686	657.722185280103	1.857969792317
0	687	658.09107677908	0.368891498977
0	688	659.267919132678	1.176842353598
0	689	661.027619481646	1.759700348968
0	690	661.80757414572	0.779954664074
0	691	663.239294957461	1.431720811741
0	692	663.287899235863	0.048604278402
0	693	664.260082632853	0.97218339699
0	694	665.426669335551	1.166586702698
0	695	665.528805943346	0.102136607795
0	696	665.599053848329	0.070247904983
0	697	665.629681461545	0.030627613216
0	698	666.412759138967	0.783077677422
0	699	667.855192276881	1.442433137914
0	700	668.644870084713	0.789677807832
0	701	669.392651349335	0.747781264622
0	702	669.458950938678	0.066299589343
0	703	669.470436874069	0.011485935391
0	704	671.218145089174	1.747708215105
0	705	674.307763940133	3.089618850959
0	706	674.623709088883	0.31594514875
0	707	675.120509278824	0.496800189941
0	708	677.948500578324	2.8279912995
0	709	678.810417886486	0.861917308162
0	710	680.552524490916	1.74210660443
0	711	681.347483335576	0.79495884466
0	712	685.088797431605	3.741314096029
0	713	685.655528714348	0.566731282743
0	714	686.881513784303	1.225985069955
0	715	689.815771706078	2.934257921775
0	716	690.118997305089	0.303225599011
0	717	692.171719548533	2.052722243444
0	718	692.338160723962	0.166441175429
0	719	693.283876241015	0.945715517053
0	720	694.393038113198	1.109161872183
0	721	694.666096649563	0.273058536365
0	722	694.918977355148	0.252880705585
0	723	695.044580837272	0.125603482124
0	724	697.339817948645	2.295237111373
0	725	697.587008950881	0.247191002236
0	726	697.632565448809	0.045556497928
0	727	698.436403118431	0.803837669622
0	728	698.733851966764	0.297448848333
0	729	698.947857101592	0.214005134828
0	730	699.152098572092	0.2042414705
0	731	699.175517441178	0.023418869086
0	732	702.847330637142	3.671813195964
0	733	704.782735298005	1.935404660863
0	734	704.828339425623	0.045604127618
0	735	706.789681363542	1.961341937919
0	736	706.881661042123	0.091979678581
0	737	707.691889002889	0.810227960766
0	738	707.940327182637	0.248438179748
0	739	708.182212952562	0.241885769925
0	740	708.464348147803	0.282135195241
0	741	709.939694437824	1.475346290021
0	742	713.995849642167	4.056155204343
0	743	714.620161098629	0.624311456462
0	744	716.448331188107	1.828170089478
0	745	718.341710514836	1.893379326729
0	746	719.219471296352	0.877760781516
0	747	719.383302686026	0.163831389674
0	748	720.76515124851	1.381848562484
0	749	720.995500817523	0.230349569013
0	750	721.81049554851	0.814994730987
0	751	722.133369450852	0.322873902342
0	752	724.723147596579	2.589778145727
0	753	724.727925397909	0.00477780133
0	754	725.007676348195	0.279750950286
0	755	725.255347313305	0.24767096511
0	756	729.827725011509	4.572377698204
0	757	730.055858824704	0.228133813195
0	758	730.150307551408	0.094448726704
0	759	731.600799624705	1.450492073297
0	760	732.457759120996	0.856959496291
0	761	732.548322954026	0.09056383303
0	762	732.933030830712	0.384707876686
0	763	733.063049514329	0.130018683617
0	764	733.723605803547	0.660556289218
0	765	736.35741476835	2.633808964803
0	766	736.984057048134	0.626642279784
0	767	737.184280000366	0.200222952232
0	768	737.549379453358	0.365099452992
0	769	738.591691465521	1.042312012163
0	770	740.364942283373	1.773250817852
0	771	741.802696481851	1.437754198478
0	772	742.52966755575	0.726971073899
0	773	744.236483211294	1.706815655544
0	774	744.516735597309	0.280252386015
0	775	744.73265928695	0.215923689641
0	776	745.35846328179	0.62580399484
0	777	745.907892945242	0.549429663452
0	778	748.655496683791	2.747603738549
0	779	749.190834262895	0.535337579104
0	780	749.637025157414	0.446190894519
0	781	750.156039610874	0.51901445346
0	782	753.921070543504	3.76503093263
0	783	757.042558472503	3.121487928999
0	784	757.352272277189	0.309713804686
0	785	757.537661610044	0.185389332855
0	786	760.835969759687	3.298308149643
0	787	761.190764405345	0.354794645658
0	788	764.423109654231	3.232345248886
0	789	764.491754213768	0.068644559537
0	790	765.677372658445	1.185618444677
0	791	766.393511665569	0.716139007124
0	792	767.041312797344	0.647801131775
0	793	768.971131905436	1.929819108092
0	794	769.004659041475	0.033527136039
0	795	770.209170794334	1.204511752859
0	796	770.524921668132	0.315750873798
0	797	773.126291046821	2.601369378689
0	798	773.87020030983	0.743909263009
0	799	774.986252794122	1.116052484292
0	800	775.548539511353	0.562286717231
0	801	775.778551264499	0.230011753146
0	802	775.867723827209	0.08917256271
0	803	776.286618884403	0.418895057194
0	804	776.353665101575	0.067046217172
0	805	776.989314404695	0.63564930312
0	806	777.062230130265	0.07291572557
0	807	777.534497256457	0.472267126192
0	808	777.535678224445	0.001180967988
0	809	779.774543527969	2.238865303524
0	810	779.825947059821	0.051403531852
0	811	780.382855583422	0.556908523601
0	812	781.835392606033	1.452537022611
0	813	781.981362635752	0.145970029719
0	814	782.171127829038	0.189765193286
0	815	784.344604299895	2.173476470857
0	816	784.436515497563	0.091911197668
0	817	784.553693438813	0.11717794125
0	818	785.534897287141	0.981203848328
0	819	787.200635633229	1.665738346088
0	820	787.2392001342	0.038564500971
0	821	787.332708360063	0.093508225863
0	822	787.579350843026	0.246642482963
0	823	787.827863333504	0.248512490478
0	824	790.520664693725	2.692801360221
0	825	791.177623618815	0.65695892509
0	826	791.919459045797	0.741835426982
0	827	792.305413588283	0.385954542486
0	828	794.149286032799	1.843872444516
0	829	796.711724177607	2.562438144808
0	830	798.051486075578	1.339761897971
0	831	798.499954765631	0.448468690053
0	832	799.174361378567	0.674406612936
0	833	799.207308699532	0.032947320965
0	834	800.091864374874	0.884555675342
0	835	801.074204333666	0.982339958792
0	836	806.0261115411	4.951907207434
0	837	807.584465230439	1.558353689339
0	838	809.654560845903	2.070095615464
0	839	811.455213552441	1.800652706538
0	840	811.5793091298	0.124095577359
0	841	811.760671732759	0.181362602959
0	842	812.157015821938	0.396344089179
0	843	813.074723533927	0.917707711989
0	844	813.455510780318	0.380787246391
0	845	813.655061756896	0.199550976578
0	846	816.2942380938	2.639176336904
0	847	816.325469738951	0.031231645151
0	848	816.842853133007	0.517383394056
0	849	817.191904720767	0.34905158776
0	850	818.464260852053	1.272356131286
0	851	818.55408542896	0.089824576907
0	852	819.580644894197	1.026559465237
0	853	820.079313649634	0.498668755437
0	854	820.31552283583	0.236209186196
0	855	821.453082301686	1.137559465856
0	856	821.827539808239	0.374457506553
0	857	822.696170339925	0.868630531686
0	858	823.237170920671	0.541000580746
0	859	823.89356357734	0.656392656669
0	860	823.983977265336	0.090413687996
0	861	824.803227752932	0.819250487596
0	862	825.00842848303	0.205200730098
0	863	825.746550176084	0.738121693054
0	864	827.378014789318	1.631464613234
0	865	829.176857546399	1.798842757081
0	866	830.132097250589	0.95523970419
0	867	830.854744120401	0.722646869812
0	868	831.423672000897	0.568927880496
0	869	836.246402630532	4.822730629635
0	870	838.301668726915	2.055266096383
0	871	839.660422811085	1.35875408417
0	872	839.824445423	0.164022611915
0	873	841.270587841439	1.446142418439
0	874	841.525379635369	0.25479179393
0	875	842.604357697218	1.078978061849
0	876	842.894136189719	0.289778492501
0	877	843.02694082177	0.132804632051
0	878	843.386832272128	0.359891450358
0	879	846.090969639588	2.70413736746
0	880	846.541954910116	0.450985270528
0	881	847.69071730608	1.148762395964
0	882	848.500213895909	0.809496589829
0	883	851.118305966605	2.618092070696
0	884	851.468279197834	0.349973231229
0	885	851.875554870022	0.407275672188
0	886	852.068590241931	0.193035371909
0	887	852.388007123309	0.319416881378
0	888	853.75149789753	1.363490774221
0	889	855.495360609255	1.743862711725
0	890	855.983050017799	0.487689408544
0	891	859.809689755724	3.826639737925
0	892	859.969283980567	0.159594224843
0	893	860.718578262062	0.749294281495
0	894	862.316170239734	1.597591977672
0	895	863.712072533838	1.395902294104
0	896	864.067802226863	0.355729693025
0	897	867.028216458679	2.960414231816
0	898	867.136887463273	0.108671004594
0	899	867.995349378581	0.858461915308
0	900	869.225648972506	1.230299593925
0	901	869.302105841635	0.076456869129
0	902	869.851830210803	0.549724369168
0	903	872.615329332216	2.763499121413
0	904	872.779834727786	0.16450539557
0	905	873.873404876021	1.093570148235
0	906	874.214266195976	0.340861319955
0	907	875.437181074452	1.222914878476
0	908	875.945187047058	0.508005972606
0	909	876.139030958887	0.193843911829
0	910	876.558715914382	0.419684955495
0	911	878.525196661675	1.966480747293
0	912	879.611420552792	1.086223891117
0	913	879.958114108752	0.34669355596
0	914	882.51107191746	2.552957808708
0	915	882.787931266189	0.276859348729
0	916	883.008902570539	0.22097130435
0	917	883.44803586562	0.439133295081
0	918	884.651014427884	1.202978562264
0	919	886.65272931218	2.001714884296
0	920	887.594183588825	0.941454276645
0	921	890.47413454147	2.879950952645
0	922	890.86860798085	0.39447343938
0	923	892.891845935752	2.023237954902
0	924	893.699103574383	0.807257638631
0	925	893.766792122272	0.067688547889
0	926	896.069559886658	2.302767764386
0	927	896.477539984656	0.407980097998
0	928	897.376557663755	0.899017679099
0	929	897.810142542293	0.433584878538
0	930	898.05260596553	0.242463423237
0	931	900.58990524087	2.53729927534
0	932	900.817643599549	0.227738358679
0	933	902.670359291369	1.85271569182
0	934	902.885015857326	0.214656565957
0	935	905.551038084929	2.666022227603
0	936	908.568923952491	3.017885867562
0	937	908.771887623517	0.202963671026
0	938	909.771521417637	0.99963379412
0	939	909.82210477749	0.050583359853
0	940	912.462409586344	2.640304808854
0	941	912.58680576019	0.124396173846
0	942	916.423211775488	3.836406015298
0	943	916.515241691686	0.092029916198
0	944	916.980920143991	0.465678452305
0	945	917.247518220143	0.266598076152
0	946	917.26727152516	0.019753305017
0	947	921.451250122002	4.183978596842
0	948	921.682975285578	0.231725163576
0	949	924.259582205524	2.576606919946
0	950	924.304895362795	0.045313157271
0	951	924.358271384284	0.053376021489
0	952	924.370902471595	0.012631087311
0	953	925.573781836742	1.202879365147
0	954	927.799328602523	2.225546765781
0	955	928.715249650447	0.915921047924
0	956	929.654115259309	0.938865608862
0	957	929.749545002864	0.095429743555
0	958	930.749820946236	1.000275943372
0	959	931.760430471343	1.010609525107
0	960	932.309666972396	0.549236501053
0	961	932.720315684299	0.410648711903
0	962	933.061097961368	0.340782277069
0	963	933.75106667031	0.689968708942
0	964	934.404233145842	0.653166475532
0	965	934.695403085814	0.291169939972
0	966	935.009601689777	0.314198603963
0	967	936.757822364061	1.748220674284
0	968	936.986846894569	0.229024530508
0	969	937.601337617315	0.614490722746
0	970	937.699985885646	0.098648268331
0	971	939.133739280807	1.433753395161
0	972	939.973338584204	0.839599303397
0	973	940.898580339282	0.925241755078
0	974	942.326084208957	1.427503869675
0	975	942.697441820221	0.371357611264
0	976	945.188438686885	2.490996866664
0	977	945.237099344881	0.048660657996
0	978	945.249888013294	0.012788668413
0	979	946.13914797435	0.889259961056
0	980	947.138572670289	0.999424695939
0	981	948.666496741383	1.527924071094
0	982	949.684552308851	1.018055567468
0	983	950.239604990009	0.555052681158
0	984	950.459838840475	0.220233850466
0	985	950.467749162476	0.007910322001
0	986	951.792640874798	1.324891712322
0	987	951.825884389643	0.033243514845
0	988	951.836654005369	0.010769615726
0	989	951.854710825742	0.018056820373
0	990	954.293613020172	2.43890219443
0	991	954.541078436215	0.247465416043
0	992	955.558225859455	1.01714742324
0	993	956.507360445612	0.949134586157
0	994	957.152635152933	0.645274707321
0	995	959.719078314462	2.566443161529
0	996	960.171191500897	0.452113186435
0	997	962.914681070662	2.743489569765
0	998	962.939347848878	0.024666778216
0	999	965.502895866007	2.563548017129
0	1000	967.107888601951	1.604992735944
0	1001	970.454269533352	3.346380931401
0	1002	973.336285020739	2.882015487387
0	1003	974.433658521599	1.09737350086
0	1004	975.318854251589	0.88519572999
0	1005	976.235014735075	0.916160483486
0	1006	976.69419572849	0.459180993415
0	1007	978.886913317914	2.192717589424
0	1008	981.845158924732	2.958245606818
0	1009	983.867064378222	2.02190545349
0	1010	984.248720320169	0.381655941947
0	1011	985.085960143812	0.837239823643
0	1012	987.919100222008	2.833140078196
0	1013	987.926907200862	0.007806978854
0	1014	990.536259212741	2.609352011879
0	1015	990.570036819519	0.033777606778
0	1016	991.789115770105	1.219078950586
0	1017	995.298081385068	3.508965614963
0	1018	996.212445958148	0.91436457308
0	1019	996.454709061912	0.242263103764
0	1020	996.604418096272	0.14970903436
0	1021	997.773653057132	1.16923496086
0	1022	997.912960816655	0.139307759523
0	1023	997.924156736441	0.011195919786
0	1024	998.556517075018	0.632360338577
0	1025	998.79185562075	0.235338545732
0	1026	999.324755389384	0.532899768634
0	1027	1000.833237383636	1.508481994252
0	1028	1003.481950101237	2.648712717601
0	1029	1004.545839476507	1.06388937527
0	1030	1005.692454072445	1.146614595938
0	1031	1005.990469766572	0.298015694127
0	1032	1006.198645807978	0.208176041406
0	1033	1009.423627961536	3.224982153558
0	1034	1011.059784700711	1.636156739175
0	1035	1011.516044310695	0.456259609984
0	1036	1013.082052638688	1.566008327993
0	1037	1014.95635402977	1.874301391082
0	1038	1015.068433465949	0.112079436179
0	1039	1016.521327124178	1.452893658229
0	1040	1016.54816362014	0.026836495962
0	1041	1016.600727260354	0.052563640214
0	1042	1016.838751675549	0.238024415195
0	1043	1016.978589666901	0.139837991352
0	1044	1017.402501291078	0.423911624177
0	1045	1019.66859165411	2.266090363032
0	1046	1019.932858085538	0.264266431428
0	1047	1022.313730677826	2.380872592288
0	1048	1023.016585260359	0.702854582533
0	1049	1024.609448726213	1.592863465854
0	1050	1025.080491961828	0.471043235615
0	1051	1026.725475861399	1.644983899571
0	1052	1026.859680346691	0.134204485292
0	1053	1027.697223379165	0.837543032474
0	1054	1028.545200992742	0.847977613577
0	1055	1029.229194162898	0.683993170156
0	1056	1035.402527694301	6.173333531403
0	1057	1036.541763433203	1.139235738902
0	1058	1041.888514793212	5.346751360009
0	1059	1042.844767508543	0.956252715331
0	1060	1043.27425109818	0.429483589637
0	1061	1044.85298921854	1.57873812036
0	1062	1045.288765688271	0.435776469731
0	1063	1045.567933137756	0.279167449485
0	1064	1047.618091339514	2.050158201758
0	1065	1048.822072363416	1.203981023902
0	1066	1048.875929363998	0.053857000582
0	1067	1049.846777346661	0.970847982663
0	1068	1052.12302443243	2.276247085769
0	1069	1052.579140528716	0.456116096286
0	1070	1053.179079164262	0.599938635546
0	1071	1054.082563764877	0.903484600615
0	1072	1055.076663734228	0.994099969351
0	1073	1056.64864071457	1.571976980342
0	1074	1057.209703802027	0.561063087457
0	1075	1057.456637989457	0.24693418743
0	1076	1059.657589619504	2.200951630047
0	1077	1059.961710218999	0.304120599495
0	1078	1061.325016647472	1.363306428473
0	1079	1063.090713735372	1.7656970879
0	1080	1063.882345371554	0.791631636182
0	1081	1064.363572650299	0.481227278745
0	1082	1065.524813826987	1.161241176688
0	1083	1065.973902271128	0.449088444141
0	1084	1065.992047098772	0.018144827644
0	1085	1068.579096045198	2.587048946426
0	1086	1068.590411455559	0.011315410361
0	1087	1069.701079767628	1.110668312069
0	1088	1070.037298032473	0.336218264845
0	1089	1073.653436528023	3.61613849555
0	1090	1073.696563003875	0.043126475852
0	1091	1075.131261323976	1.434698320101
0	1092	1076.555315107845	1.424053783869
0	1093	1076.777659780411	0.222344672566
0	1094	1078.830386530501	2.05272675009
0	1095	1079.36489335463	0.534506824129
0	1096	1079.515256679361	0.150363324731
0	1097	1081.021984733425	1.506728054064
0	1098	1083.220427155597	2.198442422172
0	1099	1083.702385297664	0.481958142067
0	1100	1084.402922563582	0.700537265918
0	1101	1087.407248109138	3.004325545556
0	1102	1090.38680634514	2.979558236002
0	1103	1090.670014025713	0.283207680573
0	1104	1091.920997910142	1.250983884429
0	1105	1093.134120485957	1.213122575815
0	1106	1093.836339307013	0.702218821056
0	1107	1095.804916299002	1.968576991989
0	1108	1096.391761230103	0.586844931101
0	1109	1097.734049577902	1.342288347799
0	1110	1097.740887720836	0.006838142934
0	1111	1099.143635393061	1.402747672225
0	1112	1099.727874574627	0.584239181566
0	1113	1100.406708293185	0.678833718558
0	1114	1101.165753905042	0.759045611857
0	1115	1103.596072701958	2.430318796916
0	1116	1103.790891556524	0.194818854566
0	1117	1103.912277509239	0.121385952715
0	1118	1104.237756195702	0.325478686463
0	1119	1106.730086325379	2.492330129677
0	1120	1106.927902421418	0.197816096039
0	1121	1108.429919571426	1.502017150008
0	1122	1110.168840524119	1.738920952693
0	1123	1111.211627632611	1.042787108492
0	1124	1113.680291824722	2.468664192111
0	1125	1116.971226286259	3.290934461537
0	1126	1118.142253856191	1.171027569932
0	1127	1120.580214019174	2.437960162983
0	1128	1120.861799470386	0.281585451212
0	1129	1122.452499014587	1.590699544201
0	1130	1122.764788010921	0.312288996334
0	1131	1124.010078981961	1.24529097104
0	1132	1124.202960330056	0.192881348095
0	1133	1126.750270454622	2.547310124566
0	1134	1126.805819939676	0.055549485054
0	1135	1127.551173138742	0.745353199066
0	1136	1127.9377197852	0.386546646458
0	1137	1129.004339914653	1.066620129453
0	1138	1129.181840392374	0.177500477721
0	1139	1129.228299208174	0.0464588158
0	1140	1129.504128790808	0.275829582634
0	1141	1130.19043460312	0.686305812312
0	1142	1130.997178020852	0.806743417732
0	1143	1133.668356860721	2.671178839869
0	1144	1135.854642648184	2.186285787463
0	1145	1136.446000069566	0.591357421382
0	1146	1136.687015159961	0.241015090395
0	1147	1139.490690449887	2.803675289926
0	1148	1140.340072412464	0.849381962577
0	1149	1141.077621730943	0.737549318479
0	1150	1141.524475696515	0.446853965572
0	1151	1141.566503045622	0.042027349107
0	1152	1144.614925266283	3.048422220661
0	1153	1145.512521176576	0.897595910293
0	1154	1145.954635841955	0.442114665379
0	1155	1146.703556482123	0.748920640168
0	1156	1148.214328017901	1.510771535778
0	1157	1149.946958272197	1.732630254296
0	1158	1151.074569226242	1.127610954045
0	1159	1154.592764354846	3.518195128604
0	1160	1156.784384617351	2.191620262505
0	1161	1156.968397053225	0.184012435874
0	1162	1158.666339416359	1.697942363134
0	1163	1160.267527396239	1.60118797988
0	1164	1160.27907452993	0.011547133691
0	1165	1160.344960931138	0.065886401208
0	1166	1160.973958219899	0.628997288761
0	1167	1162.753247653766	1.779289433867
0	1168	1163.304993760423	0.551746106657
0	1169	1163.72359721461	0.418603454187
0	1170	1167.63580485921	3.9122076446
0	1171	1167.741250719064	0.105445859854
0	1172	1168.054161268864	0.3129105498
0	1173	1168.375895153138	0.321733884274
0	1174	1168.499437293191	0.123542140053
0	1175	1168.904383617039	0.404946323848
0	1176	1168.913405629769	0.00902201273
0	1177	1169.708340299714	0.794934669945
0	1178	1173.705660314607	3.997320014893
0	1179	1176.306146282606	2.600485967999
0	1180	1176.857315866518	0.551169583912
0	1181	1177.114457101242	0.257141234724
0	1182	1177.699017628514	0.584560527272
0	1183	1178.272776538093	0.573758909579
0	1184	1181.70358510896	3.430808570867
0	1185	1183.80217020086	2.0985850919
0	1186	1185.571987625675	1.769817424815
0	1187	1187.391424228906	1.819436603231
0	1188	1187.915074309392	0.523650080486
0	1189	1188.352044981617	0.436970672225
0	1190	1188.545576565594	0.193531583977
0	1191	1189.589768836568	1.044192270974
0	1192	1189.847429571035	0.257660734467
0	1193	1190.689286387036	0.841856816001
0	1194	1190.856712122797	0.167425735761
0	1195	1192.534315596698	1.677603473901
0	1196	1193.925190019466	1.390874422768
0	1197	1195.658740863067	1.733550843601
0	1198	1196.119886913308	0.461146050241
0	1199	1198.548015572195	2.428128658887
0	1200	1199.625670154703	1.077654582508
0	1201	1200.548089083958	0.922418929255
0	1202	1201.16111368895	0.613024604992
0	1203	1201.329735333045	0.168621644095
0	1204	1201.709735212031	0.379999878986
0	1205	1203.75022380743	2.040488595399
0	1206	1204.254324285597	0.504100478167
0	1207	1205.417867674253	1.163543388656
0	1208	1205.427223714563	0.00935604031
0	1209	1206.003024089651	0.575800375088
0	1210	1206.870365167402	0.867341077751
0	1211	1210.31461957585	3.444254408448
0	1212	1211.36684120552	1.05222162967
0	1213	1211.806682602872	0.439841397352
0	1214	1212.192246670425	0.385564067553
0	1215	1214.956008271945	2.76376160152
0	1216	1216.440517476043	1.484509204098
0	1217	1216.978703834199	0.538186358156
0	1218	1217.809861162146	0.831157327947
0	1219	1219.837397291902	2.027536129756
0	1220	1220.034358001589	0.196960709687
0	1221	1220.875629836675	0.841271835086
0	1222	1221.691903303368	0.816273466693
0	1223	1223.231938194193	1.540034890825
0	1224	1223.261992342592	0.030054148399
0	1225	1228.367344327121	5.105351984529
0	1226	1228.680987219836	0.313642892715
0	1227	1230.154890204794	1.473902984958
0	1228	1230.560955043486	0.406064838692
0	1229	1231.545340231858	0.984385188372
0	1230	1234.27008274775	2.724742515892
0	1231	1235.155107364424	0.885024616674
0	1232	1237.238661939358	2.083554574934
0	1233	1239.084015759651	1.845353820293
0	1234	1239.107271887974	0.023256128323
0	1235	1239.684657366347	0.577385478373
0	1236	1240.306584887642	0.621927521295
0	1237	1241.350635537106	1.044050649464
0	1238	1242.239829106542	0.889193569436
0	1239	1244.553687510459	2.313858403917
0	1240	1245.69171231592	1.138024805461
0	1241	1247.167517776563	1.475805460643
0	1242	1247.261910251086	0.094392474523
0	1243	1247.345512609438	0.083602358352
0	1244	1250.336925260798	2.99141265136
0	1245	1252.27790315278	1.940977891982
0	1246	1252.586545128625	0.308641975845
0	1247	1253.672694997748	1.086149869123
0	1248	1254.025891048593	0.353196050845
0	1249	1254.169124669553	0.14323362096
0	1250	1255.562495983211	1.393371313658
0	1251	1255.776940689037	0.214444705826
0	1252	1256.045479359378	0.268538670341
0	1253	1256.751098826199	0.705619466821
0	1254	1258.462734743339	1.71163591714
0	1255	1260.609359497317	2.146624753978
0	1256	1260.85897895521	0.249619457893
0	1257	1261.071178845752	0.212199890542
0	1258	1261.092067254135	0.020888408383
0	1259	1261.235401748018	0.143334493883
0	1260	1261.333034024843	0.097632276825
0	1261	1261.378562134115	0.045528109272
0	1262	1264.519428722653	3.140866588538
0	1263	1264.982221692911	0.462792970258
0	1264	1266.184865603156	1.202643910245
0	1265	1266.298933904072	0.114068300916
0	1266	1267.437561080921	1.138627176849
0	1267	1269.702852805689	2.265291724768
0	1268	1271.251903641796	1.549050836107
0	1269	1271.497709214097	0.245805572301
0	1270	1272.31376247932	0.816053265223
0	1271	1272.424004858467	0.110242379147
0	1272	1272.697726375914	0.273721517447
0	1273	1272.72297427401	0.025247898096
0	1274	1273.451309974324	0.728335700314
0	1275	1273.506844269812	0.055534295488
0	1276	1274.777762446568	1.270918176756
0	1277	1275.334799155632	0.557036709064
0	1278	1276.141917334643	0.807118179011
0	1279	1279.263370222045	3.121452887402
0	1280	1280.258646772044	0.995276549999
0	1281	1280.287891079773	0.029244307729
0	1282	1280.926901962263	0.63901088249
0	1283	1281.084404792172	0.157502829909
0	1284	1281.514482552953	0.430077760781
0	1285	1283.240333870569	1.725851317616
0	1286	1285.025352407827	1.785018537258
0	1287	1285.688211109115	0.662858701288
0	1288	1286.414723952013	0.726512842898
0	1289	1286.991492635195	0.576768683182
0	1290	1287.797943907743	0.806451272548
0	1291	1288.077327936785	0.279384029042
0	1292	1288.72566130097	0.648333364185
0	1293	1288.848052727322	0.122391426352
0	1294	1289.302841569896	0.454788842574
0	1295	1289.662784196436	0.35994262654
0	1296	1290.315963984773	0.653179788337
0	1297	1291.985517932351	1.669553947578
0	1298	1292.175479600684	0.189961668333
0	1299	1292.485496283729	0.310016683045
0	1300	1292.889000838568	0.403504554839
0	1301	1293.386185936261	0.497185097693
0	1302	1293.486799905449	0.100613969188
0	1303	1294.062338458817	0.575538553368
0	1304	1294.442465458009	0.380126999192
0	1305	1294.525781174332	0.083315716323
0	1306	1295.817717405662	1.29193623133
0	1307	1296.326114143332	0.50839673767
0	1308	1297.061504819331	0.735390675999
0	1309	1297.445793997071	0.38428917774
0	1310	1298.644463760231	1.19866976316
0	1311	1299.337002833317	0.692539073086
0	1312	1300.63676513137	1.299762298053
0	1313	1301.42409178724	0.78732665587
0	1314	1301.78737896601	0.36328717877
0	1315	1303.440061206882	1.652682240872
0	1316	1303.549817726145	0.109756519263
0	1317	1305.676892843116	2.127075116971
0	1318	1306.580735471474	0.903842628358
0	1319	1308.656638380938	2.075902909464
0	1320	1308.910804421974	0.254166041036
0	1321	1309.001465863394	0.09066144142
0	1322	1309.18812177294	0.186655909546
0	1323	1309.600154635036	0.412032862096
0	1324	1309.827214696008	0.227060060972
0	1325	1309.944242357436	0.117027661428
0	1326	1311.202659909167	1.258417551731
0	1327	1311.782275670127	0.57961576096
0	1328	1312.460974409617	0.67869873949
0	1329	1312.726718798237	0.26574438862
0	1330	1313.532826457078	0.806107658841
0	1331	1318.279544304465	4.746717847387
0	1332	1318.324970075787	0.045425771322
0	1333	1318.54401644164	0.219046365853
0	1334	1318.789065294203	0.245048852563
0	1335	1319.527688672405	0.738623378202
0	1336	1319.652484970881	0.124796298476
0	1337	1320.857226441016	1.204741470135
0	1338	1322.327453826149	1.470227385133
0	1339	1323.075893228182	0.748439402033
0	1340	1325.414270991316	2.338377763134
0	1341	1329.738204888163	4.323933896847
0	1342	1331.69580176255	1.957596874387
0	1343	1333.300365255596	1.604563493046
0	1344	1333.451744958203	0.151379702607
0	1345	1333.692674428467	0.240929470264
0	1346	1333.915089632674	0.222415204207
0	1347	1334.650954639317	0.735865006643
0	1348	1334.756899644627	0.10594500531
0	1349	1334.757156739235	0.000257094608
0	1350	1334.909447550688	0.152290811453
0	1351	1336.01303144162	1.103583890932
0	1352	1337.312038069519	1.299006627899
0	1353	1338.62955441488	1.317516345361
0	1354	1338.642254409299	0.012699994419
0	1355	1339.229439866076	0.587185456777
0	1356	1339.481430418628	0.251990552552
0	1357	1339.774382960973	0.292952542345
0	1358	1343.490111302909	3.715728341936
0	1359	1344.835793540113	1.345682237204
0	1360	1344.938668797125	0.102875257012
0	1361	1344.98069731519	0.042028518065
0	1362	1345.938405857838	0.957708542648
0	1363	1348.392166089963	2.453760232125
0	1364	1348.637033337941	0.244867247978
0	1365	1348.75048664391	0.113453305969
0	1366	1348.785156451779	0.034669807869
0	1367	1349.616033038308	0.830876586529
0	1368	1350.581414994298	0.96538195599
0	1369	1351.870290906122	1.288875911824
0	1370	1353.167917548065	1.297626641943
0	1371	1353.471153014561	0.303235466496
0	1372	1353.593257145128	0.122104130567
0	1373	1353.722066196593	0.128809051465
0	1374	1354.44973853293	0.727672336337
0	1375	1355.606496249151	1.156757716221
0	1376	1356.248985140869	0.642488891718
0	1377	1359.176745713601	2.927760572732
0	1378	1359.589963997978	0.413218284377
0	1379	1361.113181551032	1.523217553054
0	1380	1362.312460532288	1.199278981256
0	1381	1362.731936606208	0.41947607392
0	1382	1368.841545385234	6.109608779026
0	1383	1369.710453620794	0.86890823556
0	1384	1370.012657514697	0.302203893903
0	1385	1370.395123970152	0.382466455455
0	1386	1372.895234730272	2.50011076012
0	1387	1374.100987942995	1.205753212723
0	1388	1374.576034336622	0.475046393627
0	1389	1374.636243053835	0.060208717213
0	1390	1375.485526650548	0.849283596713
0	1391	1376.5594099188	1.073883268252
0	1392	1377.080584076557	0.521174157757
0	1393	1377.664897895104	0.584313818547
0	1394	1378.761080376897	1.096182481793
0	1395	1380.567138253498	1.806057876601
0	1396	1381.34506938546	0.777931131962
0	1397	1381.882468902882	0.537399517422
0	1398	1382.16804482859	0.285575925708
0	1399	1382.893517357803	0.725472529213
0	1400	1386.265426275419	3.371908917616
0	1401	1388.494333431516	2.228907156097
0	1402	1388.770242534873	0.275909103357
0	1403	1389.464051697392	0.693809162519
0	1404	1391.831752344145	2.367700646753
0	1405	1392.240561546632	0.408809202487
0	1406	1392.551726218635	0.311164672003
0	1407	1393.073704006893	0.521977788258
0	1408	1393.407007760108	0.333303753215
0	1409	1396.068559324493	2.661551564385
0	1410	1396.485870134082	0.417310809589
0	1411	1397.085983886892	0.60011375281
0	1412	1397.934340228405	0.848356341513
0	1413	1398.120134045163	0.185793816758
0	1414	1399.211753437383	1.09161939222
0	1415	1399.98060789383	0.768854456447
0	1416	1400.58204529967	0.60143740584
0	1417	1400.941327787251	0.359282487581
0	1418	1401.846266034924	0.904938247673
0	1419	1402.034328146837	0.188062111913
0	1420	1402.568672597031	0.534344450194
0	1421	1403.031672557436	0.462999960405
0	1422	1406.43895111713	3.407278559694
0	1423	1407.490175756469	1.051224639339
0	1424	1408.103914883464	0.613739126995
0	1425	1408.390325273047	0.286410389583
0	1426	1408.84302697737	0.452701704323
0	1427	1409.299946211056	0.456919233686
0	1428	1410.235061162408	0.935114951352
0	1429	1410.710907806639	0.475846644231
0	1430	1410.941868977961	0.230961171322
0	1431	1411.874145560854	0.932276582893
0	1432	1413.637922694093	1.763777133239
0	1433	1414.785135077564	1.147212383471
0	1434	1417.301025935573	2.515890858009
0	1435	1418.235291668855	0.934265733282
0	1436	1418.314488768304	0.079197099449
0	1437	1419.384075615709	1.069586847405
0	1438	1420.525798139662	1.141722523953
0	1439	1423.140622410132	2.61482427047
0	1440	1423.727433781681	0.586811371549
0	1441	1424.068274198556	0.340840416875
0	1442	1425.167725112442	1.099450913886
0	1443	1427.239156203129	2.071431090687
0	1444	1427.561918719954	0.322762516825
0	1445	1431.284923923301	3.723005203347
0	1446	1435.639580368814	4.354656445513
0	1447	1436.084177224359	0.444596855545
0	1448	1436.200166385781	0.115989161422
0	1449	1438.45843585596	2.258269470179
0	1450	1438.660692869457	0.202257013497
0	1451	1439.79623475888	1.135541889423
0	1452	1441.01353465296	1.21729989408
0	1453	1441.056574009108	0.043039356148
0	1454	1441.694563289951	0.637989280843
0	1455	1441.738065131559	0.043501841608
0	1456	1443.706090406138	1.968025274579
0	1457	1443.821161096563	0.115070690425
0	1458	1443.987718287791	0.166557191228
0	1459	1445.333435438305	1.345717150514
0	1460	1445.437252444954	0.103817006649
0	1461	1447.895045469265	2.457793024311
0	1462	1448.267210918854	0.372165449589
0	1463	1450.916290560147	2.649079641293
0	1464	1457.61406469734	6.697774137193
0	1465	1457.973043333445	0.358978636105
0	1466	1458.432493592419	0.459450258974
0	1467	1458.758925496033	0.326431903614
0	1468	1458.791124398948	0.032198902915
0	1469	1458.908154968536	0.117030569588
0	1470	1459.256457201255	0.348302232719
0	1471	1459.435390109406	0.178932908151
0	1472	1459.490127731732	0.054737622326
0	1473	1459.562620019112	0.07249228738
0	1474	1463.699951400919	4.137331381807
0	1475	1464.567421301595	0.867469900676
0	1476	1464.734655167995	0.1672338664
0	1477	1464.869321269804	0.134666101809
0	1478	1465.795550246569	0.926228976765
0	1479	1465.96330063613	0.167750389561
0	1480	1468.204358804789	2.241058168659
0	1481	1470.385837998951	2.181479194162
0	1482	1471.301564943347	0.915726944396
0	1483	1472.014711550841	0.713146607494
0	1484	1472.961621745639	0.946910194798
0	1485	1473.254289047931	0.292667302292
0	1486	1473.446349776324	0.192060728393
0	1487	1474.010935755207	0.564585978883
0	1488	1474.094671687168	0.083735931961
0	1489	1474.584405761916	0.489734074748
0	1490	1474.75838519808	0.173979436164
0	1491	1474.916705152743	0.158319954663
0	1492	1475.86881373511	0.952108582367
0	1493	1476.338059108666	0.469245373556
0	1494	1476.935658117009	0.597599008343
0	1495	1477.004516048943	0.068857931934
0	1496	1477.808015416312	0.803499367369
0	1497	1479.654317441543	1.846302025231
0	1498	1480.248474673174	0.594157231631
0	1499	1481.737669303688	1.489194630514
0	1500	1482.278643764362	0.540974460674
0	1501	1482.55189533627	0.273251571908
0	1502	1483.218975545159	0.667080208889
0	1503	1483.793127213016	0.574151667857
0	1504	1485.818442561466	2.02531534845
0	1505	1487.057814401215	1.239371839749
0	1506	1492.295757506274	5.237943105059
0	1507	1493.432405472958	1.136647966684
0	1508	1493.842201515148	0.40979604219
0	1509	1496.671143323274	2.828941808126
0	1510	1500.321132619238	3.649989295964
0	1511	1501.069731292406	0.748598673168
0	1512	1501.263051981379	0.193320688973
0	1513	1502.906149232877	1.643097251498
0	1514	1503.143371666116	0.237222433239
0	1515	1503.144406217568	0.001034551452
0	1516	1504.182558026511	1.038151808943
0	1517	1509.826063411145	5.643505384634
0	1518	1511.535965417101	1.709902005956
0	1519	1512.396524282855	0.860558865754
0	1520	1512.6491832496	0.252658966745
0	1521	1515.00677815455	2.35759490495
0	1522	1516.338952154153	1.332173999603
0	1523	1518.445487814935	2.106535660782
0	1524	1518.681599308295	0.23611149336
0	1525	1519.768047391186	1.086448082891
0	1526	1524.766576321591	4.998528930405
0	1527	1525.176974352935	0.410398031344
0	1528	1527.376069305134	2.199094952199
0	1529	1528.175731329823	0.799662024689
0	1530	1528.564465764376	0.388734434553
0	1531	1528.961511077667	0.397045313291
0	1532	1530.134009157702	1.172498080035
0	1533	1532.193559774259	2.059550616557
0	1534	1532.465138880657	0.271579106398
0	1535	1532.924225281924	0.459086401267
0	1536	1535.370347782605	2.446122500681
0	1537	1535.414888275283	0.044540492678
0	1538	1535.776010841728	0.361122566445
0	1539	1536.929712338227	1.153701496499
0	1540	1538.069358000661	1.139645662434
0	1541	1539.09585520611	1.026497205449
0	1542	1540.996029186692	1.900173980582
0	1543	1542.520703108599	1.524673921907
0	1544	1542.992164948936	0.471461840337
0	1545	1543.355565995037	0.363401046101
0	1546	1544.627872303913	1.272306308876
0	1547	1545.206465557775	0.578593253862
0	1548	1545.444611863685	0.23814630591
0	1549	1545.619687286053	0.175075422368
0	1550	1545.658010159569	0.038322873516
0	1551	1546.212418961934	0.554408802365
0	1552	1547.04695082544	0.834531863506
0	1553	1547.478068181084	0.431117355644
0	1554	1547.790097953753	0.312029772669
0	1555	1548.497713328696	0.707615374943
0	1556	1549.326165309315	0.828451980619
0	1557	1551.26371453145	1.937549222135
0	1558	1553.370295644144	2.106581112694
0	1559	1553.642618408268	0.272322764124
0	1560	1553.660208688899	0.017590280631
0	1561	1556.909461808334	3.249253119435
0	1562	1558.016568287149	1.107106478815
0	1563	1558.094451277112	0.077882989963
0	1564	1558.128080653281	0.033629376169
0	1565	1562.02485471808	3.896774064799
0	1566	1564.498161734861	2.473307016781
0	1567	1566.496942840068	1.998781105207
0	1568	1567.258375605631	0.761432765563
0	1569	1567.675819244523	0.417443638892
0	1570	1568.711767266875	1.035948022352
0	1571	1569.224346466442	0.512579199567
0	1572	1569.315663699379	0.091317232937
0	1573	1571.554038579019	2.23837487964
0	1574	1571.717566152513	0.163527573494
0	1575	1571.770920108194	0.053353955681
0	1576	1571.950976698143	0.180056589949
0	1577	1576.487538521616	4.536561823473
0	1578	1576.745711609228	0.258173087612
0	1579	1579.070668377504	2.324956768276
0	1580	1581.231129162323	2.160460784819
0	1581	1582.373661824713	1.14253266239
0	1582	1583.185401753925	0.811739929212
0	1583	1583.500979503037	0.315577749112
0	1584	1584.323465021205	0.822485518168
0	1585	1585.968279620659	1.644814599454
0	1586	1586.125282423602	0.157002802943
0	1587	1586.699815849811	0.574533426209
0	1588	1587.990614284576	1.290798434765
0	1589	1590.446273970104	2.455659685528
0	1590	1591.242398370785	0.796124400681
0	1591	1591.270763331565	0.02836496078
0	1592	1591.541957566994	0.271194235429
0	1593	1592.739899498923	1.197941931929
0	1594	1593.164278821384	0.424379322461
0	1595	1595.807795676547	2.643516855163
0	1596	1597.190132223882	1.382336547335
0	1597	1597.636383453205	0.446251229323
0	1598	1597.688080964258	0.051697511053
0	1599	1597.991498079224	0.303417114966
0	1600	1599.454829025658	1.463330946434
0	1601	1600.504787458239	1.049958432581
0	1602	1600.830938895339	0.3261514371
0	1603	1602.099869181023	1.268930285684
0	1604	1604.39278656088	2.292917379857
0	1605	1606.797679928063	2.404893367183
0	1606	1607.403179064579	0.605499136516
0	1607	1611.204276571355	3.801097506776
0	1608	1613.091784282451	1.887507711096
0	1609	1613.289403247136	0.197618964685
0	1610	1614.098889463579	0.809486216443
0	1611	1615.452066268314	1.353176804735
0	1612	1615.532023348831	0.079957080517
0	1613	1616.296319642743	0.764296293912
0	1614	1619.567408174726	3.271088531983
0	1615	1620.069195312774	0.501787138048
0	1616	1621.1432391942	1.074043881426
0	1617	1624.33160897478	3.18836978058
0	1618	1625.24622632087	0.91461734609
0	1619	1626.607575000295	1.361348679425
0	1620	1626.781752472653	0.174177472358
0	1621	1628.246099751928	1.464347279275
0	1622	1628.585629741613	0.339529989685
0	1623	1629.088545332945	0.502915591332
0	1624	1629.194135085624	0.105589752679
0	1625	1630.218945416694	1.02481033107
0	1626	1630.65146555443	0.432520137736
0	1627	1630.857038352751	0.205572798321
0	1628	1631.222629650735	0.365591297984
0	1629	1633.315304350787	2.092674700052
0	1630	1633.731204236174	0.415899885387
0	1631	1633.738935148957	0.007730912783
0	1632	1634.469440813793	0.730505664836
0	1633	1635.131422290262	0.661981476469
0	1634	1637.579694704907	2.448272414645
0	1635	1637.815163861214	0.235469156307
0	1636	1637.911929160601	0.096765299387
0	1637	1639.852109418134	1.940180257533
0	1638	1640.628244212896	0.776134794762
0	1639	1642.725774828778	2.097530615882
0	1640	1642.976625739317	0.250850910539
0	1641	1643.844720675919	0.868094936602
0	1642	1643.919882567589	0.07516189167
0	1643	1644.538534576805	0.618652009216
0	1644	1646.127744410386	1.589209833581
0	1645	1646.648361942111	0.520617531725
0	1646	1646.91901199937	0.270650057259
0	1647	1647.093118189078	0.174106189708
0	1648	1647.288526390886	0.195408201808
0	1649	1649.110315001665	1.821788610779
0	1650	1649.255180101459	0.144865099794
0	1651	1650.802419927841	1.547239826382
0	1652	1652.743541741837	1.941121813996
0	1653	1653.542649076616	0.799107334779
0	1654	1653.832602118983	0.289953042367
0	1655	1654.427757690365	0.595155571382
0	1656	1655.044117608915	0.61635991855
0	1657	1655.147882739076	0.103765130161
0	1658	1656.039047252698	0.891164513622
0	1659	1656.348409482057	0.309362229359
0	1660	1658.046488000624	1.698078518567
0	1661	1658.34823395049	0.301745949866
0	1662	1659.137306053739	0.789072103249
0	1663	1661.039517408901	1.902211355162
0	1664	1661.862723304418	0.823205895517
0	1665	1662.157282308738	0.29455900432
0	1666	1663.076954782274	0.919672473536
0	1667	1664.716649581339	1.639694799065
0	1668	1665.049085302442	0.332435721103
0	1669	1666.791036530169	1.741951227727
0	1670	1666.820402866848	0.029366336679
0	1671	1668.009998664264	1.189595797416
0	1672	1668.699416696809	0.689418032545
0	1673	1668.846470437072	0.147053740263
0	1674	1668.903228793132	0.05675835606
0	1675	1669.628498732263	0.725269939131
0	1676	1669.906886809559	0.278388077296
0	1677	1671.724441857034	1.817555047475
0	1678	1671.97882301072	0.254381153686
0	1679	1672.6725433424	0.69372033168
0	1680	1672.850714693142	0.178171350742
0	1681	1672.853887823155	0.003173130013
0	1682	1673.279791306184	0.425903483029
0	1683	1673.571174602529	0.291383296345
0	1684	1673.725286563991	0.154111961462
0	1685	1673.804659577277	0.079373013286
0	1686	1674.049459913795	0.244800336518
0	1687	1674.113874577694	0.064414663899
0	1688	1674.598439869232	0.484565291538
0	1689	1675.205893704449	0.607453835217
0	1690	1677.750996249338	2.545102544889
0	1691	1679.037599368165	1.286603118827
0	1692	1679.848038358296	0.810438990131
0	1693	1680.069378406682	0.221340048386
0	1694	1680.592581318675	0.523202911993
0	1695	1680.893315229075	0.3007339104
0	1696	1682.251913328069	1.358598098994
0	1697	1684.080086623716	1.828173295647
0	1698	1684.667736054941	0.587649431225
0	1699	1684.712200629555	0.044464574614
0	1700	1686.066098447584	1.353897818029
0	1701	1687.37681545035	1.310717002766
0	1702	1688.842714701925	1.465899251575
0	1703	1692.009350798875	3.16663609695
0	1704	1693.715388169405	1.70603737053
0	1705	1694.539532325908	0.824144156503
0	1706	1694.976652741861	0.437120415953
0	1707	1696.638402187105	1.661749445244
0	1708	1696.95122750937	0.312825322265
0	1709	1697.384812197169	0.433584687799
0	1710	1698.373330797539	0.98851860037
0	1711	1698.610439660182	0.237108862643
0	1712	1704.694373342392	6.08393368221
0	1713	1709.207957166033	4.513583823641
0	1714	1709.336532931484	0.128575765451
0	1715	1710.954632116166	1.618099184682
0	1716	1711.436956127339	0.482324011173
0	1717	1712.708671237042	1.271715109703
0	1718	1713.282724985478	0.574053748436
0	1719	1714.18535091862	0.902625933142
0	1720	1714.67186156988	0.48651065126
0	1721	1716.938620057965	2.266758488085
0	1722	1717.546996487877	0.608376429912
0	1723	1717.564282096876	0.017285608999
0	1724	1718.859770360697	1.295488263821
0	1725	1720.098080052877	1.23830969218
0	1726	1720.389071615536	0.290991562659
0	1727	1721.98454065472	1.595469039184
0	1728	1722.478111453833	0.493570799113
0	1729	1724.203647120007	1.725535666174
0	1730	1724.351775198997	0.14812807899
0	1731	1726.030394434572	1.678619235575
0	1732	1728.423675902342	2.39328146777
0	1733	1728.676355479953	0.252679577611
0	1734	1728.750147877473	0.07379239752
0	1735	1729.780906572497	1.030758695024
0	1736	1730.182165711253	0.401259138756
0	1737	1730.518329624681	0.336163913428
0	1738	1731.100174920904	0.581845296223
0	1739	1731.294992458523	0.194817537619
0	1740	1732.530208917244	1.235216458721
0	1741	1735.171713848396	2.641504931152
0	1742	1737.23926479239	2.067550943994
0	1743	1737.430859118923	0.191594326533
0	1744	1737.756806920244	0.325947801321
0	1745	1739.137397507359	1.380590587115
0	1746	1739.50038626647	0.362988759111
0	1747	1740.508750445359	1.008364178889
0	1748	1740.63279399236	0.124043547001
0	1749	1741.889472906955	1.256678914595
0	1750	1741.974656149371	0.085183242416
0	1751	1742.078828484739	0.104172335368
0	1752	1743.992608345886	1.913779861147
0	1753	1747.915870375999	3.923262030113
0	1754	1747.993742003776	0.077871627777
0	1755	1749.000720357279	1.006978353503
0	1756	1749.555818373221	0.555098015942
0	1757	1750.176076278563	0.620257905342
0	1758	1751.009552737199	0.833476458636
0	1759	1753.089933105163	2.080380367964
0	1760	1753.947489004702	0.857555899539
0	1761	1754.851607827146	0.904118822444
0	1762	1755.269593552824	0.417985725678
0	1763	1755.295338426279	0.025744873455
0	1764	1755.573330621629	0.27799219535
0	1765	1755.864785572056	0.291454950427
0	1766	1756.083457776942	0.218672204886
0	1767	1756.310835335881	0.227377558939
0	1768	1758.544330978003	2.233495642122
0	1769	1758.916758575387	0.372427597384
0	1770	1759.851763240677	0.93500466529
0	1771	1759.900392853742	0.048629613065
0	1772	1760.941996436143	1.041603582401
0	1773	1761.233041180597	0.291044744454
0	1774	1761.255500968698	0.022459788101
0	1775	1761.36875353663	0.113252567932
0	1776	1761.874787788285	0.506034251655
0	1777	1761.937945832441	0.063158044156
0	1778	1762.204481121928	0.266535289487
0	1779	1762.774344768295	0.569863646367
0	1780	1763.301048182347	0.526703414052
0	1781	1764.496893070782	1.195844888435
0	1782	1765.127318994749	0.630425923967
0	1783	1766.515979143823	1.388660149074
0	1784	1768.30408816424	1.788109020417
0	1785	1770.677078601598	2.372990437358
0	1786	1771.821478461623	1.144399860025
0	1787	1773.440637990152	1.619159528529
0	1788	1774.192718238944	0.752080248792
0	1789	1774.388661551624	0.19594331268
0	1790	1775.292347686323	0.903686134699
0	1791	1776.121503905768	0.829156219445
0	1792	1777.219150084877	1.097646179109
0	1793	1778.06113432864	0.841984243763
0	1794	1778.126416549905	0.065282221265
0	1795	1778.415704987344	0.289288437439
0	1796	1779.569592026394	1.15388703905
0	1797	1779.777612481312	0.208020454918
0	1798	1780.417884442467	0.640271961155
0	1799	1780.531808607321	0.113924164854
0	1800	1780.579042238303	0.047233630982
0	1801	1782.057678463818	1.478636225515
0	1802	1782.576860584706	0.519182120888
0	1803	1782.861720771935	0.284860187229
0	1804	1783.012024417815	0.15030364588
0	1805	1783.28059603784	0.268571620025
0	1806	1783.858633799616	0.578037761776
0	1807	1785.566929940284	1.708296140668
0	1808	1785.722458535559	0.155528595275
0	1809	1787.22188488261	1.499426347051
0	1810	1787.532273208981	0.310388326371
0	1811	1789.745044550896	2.212771341915
0	1812	1790.18139422286	0.436349671964
0	1813	1792.341781985156	2.160387762296
0	1814	1792.630857138366	0.28907515321
0	1815	1793.057027816585	0.426170678219
0	1816	1793.877524675873	0.820496859288
0	1817	1795.675029491933	1.79750481606
0	1818	1797.542892221755	1.867862729822
0	1819	1798.110238802749	0.567346580994
0	1820	1800.098588827175	1.988350024426
0	1821	1801.107715322301	1.009126495126
0	1822	1802.467550297702	1.359834975401
0	1823	1803.256960938175	0.789410640473
0	1824	1804.513761512331	1.256800574156
0	1825	1804.81742005582	0.303658543489
0	1826	1805.072639601543	0.255219545723
0	1827	1805.988343767835	0.915704166292
0	1828	1806.215482389266	0.227138621431
0	1829	1807.165347024665	0.949864635399
0	1830	1808.92979376032	1.764446735655
0	1831	1809.569050238707	0.639256478387
0	1832	1809.973092416688	0.404042177981
0	1833	1810.552981663261	0.579889246573
0	1834	1812.248034747039	1.695053083778
0	1835	1812.49395345729	0.245918710251
0	1836	1814.274547635093	1.780594177803
0	1837	1814.293815601613	0.01926796652
0	1838	1815.606832699537	1.313017097924
0	1839	1815.834031659274	0.227198959737
0	1840	1816.588738288845	0.754706629571
0	1841	1817.479211614483	0.890473325638
0	1842	1819.427457713566	1.948246099083
0	1843	1819.513965144802	0.086507431236
0	1844	1820.838503262527	1.324538117725
0	1845	1821.850168895244	1.011665632717
0	1846	1822.334582742358	0.484413847114
0	1847	1824.109244355559	1.774661613201
0	1848	1825.091066868582	0.981822513023
0	1849	1825.405426435739	0.314359567157
0	1850	1826.084733545724	0.679307109985
0	1851	1827.171609188127	1.086875642403
0	1852	1827.723805560718	0.552196372591
0	1853	1828.494974984873	0.771169424155
0	1854	1828.788585438492	0.293610453619
0	1855	1830.372404472733	1.583819034241
0	1856	1830.991925514258	0.619521041525
0	1857	1831.362800546131	0.370875031873
0	1858	1835.358630663554	3.995830117423
0	1859	1838.480355725897	3.121725062343
0	1860	1838.892224183199	0.411868457302
0	1861	1839.332948569309	0.44072438611
0	1862	1840.286590133477	0.953641564168
0	1863	1840.399609950814	0.113019817337
0	1864	1840.563400063301	0.163790112487
0	1865	1840.842116428104	0.278716364803
0	1866	1841.565992107631	0.723875679527
0	1867	1841.974039006889	0.408046899258
0	1868	1842.250062466999	0.27602346011
0	1869	1842.719379597397	0.469317130398
0	1870	1843.685333934133	0.965954336736
0	1871	1844.347252733635	0.661918799502
0	1872	1844.36429960282	0.017046869185
0	1873	1845.71879585867	1.35449625585
0	1874	1848.074308228255	2.355512369585
0	1875	1848.583051309831	0.508743081576
0	1876	1848.91382197102	0.330770661189
0	1877	1849.347549879836	0.433727908816
0	1878	1850.177525464617	0.829975584781
0	1879	1850.886013357779	0.708487893162
0	1880	1850.933525168754	0.047511810975
0	1881	1851.971166842296	1.037641673542
0	1882	1852.552743349154	0.581576506858
0	1883	1852.771650197563	0.218906848409
0	1884	1852.776278047886	0.004627850323
0	1885	1855.852898169682	3.076620121796
0	1886	1857.2160827555	1.363184585818
0	1887	1859.295991850304	2.079909094804
0	1888	1862.085658542504	2.7896666922
0	1889	1862.221224599475	0.135566056971
0	1890	1862.6826928961	0.461468296625
0	1891	1863.391556578291	0.708863682191
0	1892	1863.431212647347	0.039656069056
0	1893	1863.707861783002	0.276649135655
0	1894	1866.971907757096	3.264045974094
0	1895	1867.727651706295	0.755743949199
0	1896	1868.934377356974	1.206725650679
0	1897	1870.11814812781	1.183770770836
0	1898	1872.590371429131	2.472223301321
0	1899	1872.657189690202	0.066818261071
0	1900	1874.648148585357	1.990958895155
0	1901	1874.765409667511	0.117261082154
0	1902	1875.205235077593	0.439825410082
0	1903	1875.337355049002	0.132119971409
0	1904	1875.659735198365	0.322380149363
0	1905	1876.896936396101	1.237201197736
0	1906	1883.24260969759	6.345673301489
0	1907	1884.630545090059	1.387935392469
0	1908	1885.51921463604	0.888669545981
0	1909	1886.505022837258	0.985808201218
0	1910	1888.975827344192	2.470804506934
0	1911	1889.365556760957	0.389729416765
0	1912	1890.229362981773	0.863806220816
0	1913	1891.681218463314	1.451855481541
0	1914	1892.096196307692	0.414977844378
0	1915	1892.100425511059	0.004229203367
0	1916	1892.454659138499	0.35423362744
0	1917	1892.591881691892	0.137222553393
0	1918	1892.619494729903	0.027613038011
0	1919	1893.917783854365	1.298289124462
0	1920	1895.786501514812	1.868717660447
0	1921	1896.812557812726	1.026056297914
0	1922	1897.220980506966	0.40842269424
0	1923	1898.848606386969	1.627625880003
0	1924	1899.621810242539	0.77320385557
0	1925	1899.63371713642	0.011906893881
0	1926	1901.341581375954	1.707864239534
0	1927	1902.8051717003	1.463590324346
0	1928	1903.247099580529	0.441927880229
0	1929	1904.492657572675	1.245557992146
0	1930	1904.857943593339	0.365286020664
0	1931	1906.486280412358	1.628336819019
0	1932	1908.497012874453	2.010732462095
0	1933	1908.624224318428	0.127211443975
0	1934	1909.225583648676	0.601359330248
0	1935	1909.460967991579	0.235384342903
0	1936	1911.595254177967	2.134286186388
0	1937	1914.16253157407	2.567277396103
0	1938	1914.189263200379	0.026731626309
0	1939	1915.178846868704	0.989583668325
0	1940	1915.449748037637	0.270901168933
0	1941	1916.029619007126	0.579870969489
0	1942	1917.903095956276	1.87347694915
0	1943	1917.967773560616	0.06467760434
0	1944	1919.614542483211	1.646768922595
0	1945	1922.424174926899	2.809632443688
0	1946	1925.245155845798	2.820980918899
0	1947	1925.292875425917	0.047719580119
0	1948	1925.648560007447	0.35568458153
0	1949	1925.970215408805	0.321655401358
0	1950	1926.128231605579	0.158016196774
0	1951	1926.16083413736	0.032602531781
0	1952	1927.17271948292	1.01188534556
0	1953	1927.201219982709	0.028500499789
0	1954	1928.184247909588	0.983027926879
0	1955	1928.581553945112	0.397306035524
0	1956	1928.625255225695	0.043701280583
0	1957	1929.328402387291	0.703147161596
0	1958	1930.257478672186	0.929076284895
0	1959	1931.252794102041	0.995315429855
0	1960	1931.3998809436	0.147086841559
0	1961	1932.307969529595	0.908088585995
0	1962	1932.737422097216	0.429452567621
0	1963	1934.14401284448	1.406590747264
0	1964	1936.727624364942	2.583611520462
0	1965	1937.403984130339	0.676359765397
0	1966	1937.491416698938	0.087432568599
0	1967	1938.077236141767	0.585819442829
0	1968	1940.120725291656	2.043489149889
0	1969	1940.443666906289	0.322941614633
0	1970	1940.997283931848	0.553617025559
0	1971	1941.565852541391	0.568568609543
0	1972	1941.909427082602	0.343574541211
0	1973	1943.21367619557	1.304249112968
0	1974	1943.859498847172	0.645822651602
0	1975	1944.144162679518	0.284663832346
0	1976	1944.455537280297	0.311374600779
0	1977	1944.884556769918	0.429019489621
0	1978	1945.563026209683	0.678469439765
0	1979	1948.831494399845	3.268468190162
0	1980	1949.009046905976	0.177552506131
0	1981	1949.174444361777	0.165397455801
0	1982	1949.254507896388	0.080063534611
0	1983	1951.584254251211	2.329746354823
0	1984	1952.014261717316	0.430007466105
0	1985	1954.58380757829	2.569545860974
0	1986	1956.377817178447	1.794009600157
0	1987	1956.572727738942	0.194910560495
0	1988	1957.735410238185	1.162682499243
0	1989	1960.997807465256	3.262397227071
0	1990	1961.331275401429	0.333467936173
0	1991	1963.318894090611	1.987618689182
0	1992	1964.073848086384	0.754953995773
0	1993	1965.588911804431	1.515063718047
0	1994	1966.769006572207	1.180094767776
0	1995	1969.219857678862	2.450851106655
0	1996	1971.406573710175	2.186716031313
0	1997	1972.92665289134	1.520079181165
0	1998	1974.221083666019	1.294430774679
0	1999	1974.36583492429	0.144751258271
0	2000	1975.713396832486	1.347561908196
0	2001	1976.289030526464	0.575633693978
0	2002	1977.121620454284	0.83258992782
0	2003	1979.160166573005	2.038546118721
0	2004	1980.635641658396	1.475475085391
0	2005	1980.735450015933	0.099808357537
0	2006	1981.691702037008	0.956252021075
0	2007	1981.698338830819	0.006636793811
0	2008	1982.034796912881	0.336458082062
0	2009	1982.577749092356	0.542952179475
0	2010	1983.000374662372	0.422625570016
0	2011	1986.048768173344	3.048393510972
0	2012	1986.954267021943	0.905498848599
0	2013	1987.921753311584	0.967486289641
0	2014	1988.414449318605	0.492696007021
0	2015	1989.975188494951	1.560739176346
0	2016	1991.197133494172	1.221944999221
0	2017	1991.56966096888	0.372527474708
0	2018	1992.689259816744	1.119598847864
0	2019	1993.153232589885	0.463972773141
0	2020	1994.577896441952	1.424663852067
0	2021	1994.909375040041	0.331478598089
0	2022	1996.794446739853	1.885071699812
0	2023	1997.716769386849	0.922322646996
0	2024	1999.652389222447	1.935619835598
0	2025	2000.079139241225	0.426750018778
0	2026	2000.437975762207	0.358836520982
0	2027	2002.722175605067	2.28419984286
0	2028	2002.877918119336	0.155742514269
0	2029	2004.153239789203	1.275321669867
0	2030	2004.343654286656	0.190414497453
0	2031	2005.020262015488	0.676607728832
0	2032	2006.208416243749	1.188154228261
0	2033	2006.385982837712	0.177566593963
0	2034	2012.819420095287	6.433437257575
0	2035	2012.936135070045	0.116714974758
0	2036	2013.57709692035	0.640961850305
0	2037	2014.397896747212	0.820799826862
0	2038	2014.702097874299	0.304201127087
0	2039	2015.063380231127	0.361282356828
0	2040	2015.911396087855	0.848015856728
0	2041	2016.129506403077	0.218110315222
0	2042	2018.184530835888	2.055024432811
0	2043	2018.527030534237	0.342499698349
0	2044	2019.320981904775	0.793951370538
0	2045	2019.428336519353	0.107354614578
0	2046	2020.104767922645	0.676431403292
0	2047	2021.8987528318	1.793984909155
0	2048	2021.904498200645	0.005745368845
0	2049	2022.603467084199	0.698968883554
0	2050	2022.842962652044	0.239495567845
0	2051	2025.290812047836	2.447849395792
0	2052	2025.372076785087	0.081264737251
0	2053	2025.676994871083	0.304918085996
0	2054	2026.213621706086	0.536626835003
0	2055	2026.278635055418	0.065013349332
0	2056	2026.948034001036	0.669398945618
0	2057	2028.358243482558	1.410209481522
0	2058	2028.730700505057	0.372457022499
0	2059	2029.611612904173	0.880912399116
0	2060	2034.789378463914	5.177765559741
0	2061	2036.24303376087	1.453655296956
0	2062	2036.916527942281	0.673494181411
0	2063	2038.719955024479	1.803427082198
0	2064	2039.625319461816	0.905364437337
0	2065	2039.917139255766	0.29181979395
0	2066	2039.918641205033	0.001501949267
[...]
0	76333	76418.575443666285	0.251339416277
0	76334	76421.938973156304	3.363529490019
0	76335	76423.164166003422	1.225192847118
0	76336	76423.582726509612	0.41856050619
0	76337	76428.051362086678	4.468635577066
0	76338	76429.040721069126	0.989358982448
0	76339	76429.473411707199	0.432690638073
0	76340	76429.769489444515	0.296077737316
0	76341	76430.853382793483	1.083893348968
0	76342	76431.530086801978	0.676704008495
0	76343	76431.695027771979	0.164940970001
0	76344	76432.22273672545	0.527708953471
0	76345	76432.71944073685	0.4967040114
0	76346	76433.940207733387	1.220766996537
0	76347	76434.070948776338	0.130741042951
0	76348	76434.433396103657	0.362447327319
0	76349	76434.699835511009	0.266439407352
0	76350	76435.424582936308	0.724747425299
0	76351	76435.993523097681	0.568940161373
0	76352	76437.623765767049	1.630242669368
0	76353	76437.673300044131	0.049534277082
0	76354	76437.675634705929	0.002334661798
0	76355	76439.655043925202	1.979409219273
0	76356	76441.531293103455	1.876249178253
0	76357	76442.29081163431	0.759518530855
0	76358	76442.98404603517	0.69323440086
0	76359	76443.039049127974	0.055003092804
0	76360	76443.165792149873	0.126743021899
0	76361	76443.65042917843	0.484637028557
0	76362	76444.979426766204	1.328997587774
0	76363	76446.842967853478	1.863541087274
0	76364	76446.931729385014	0.088761531536
0	76365	76448.389715461915	1.457986076901
0	76366	76448.392043480253	0.002328018338
0	76367	76448.411952666629	0.019909186376
0	76368	76450.669145353602	2.257192686973
0	76369	76450.723497492947	0.054352139345
0	76370	76452.014956403645	1.291458910698
0	76371	76452.771304106197	0.756347702552
0	76372	76454.955679358712	2.184375252515
0	76373	76455.274347155261	0.318667796549
0	76374	76456.518233443993	1.243886288732
0	76375	76457.059721134623	0.54148769063
0	76376	76457.601364640296	0.541643505673
0	76377	76458.605863415694	1.004498775398
0	76378	76458.903997655105	0.298134239411
0	76379	76459.12380408359	0.219806428485
0	76380	76459.232755098926	0.108951015336
0	76381	76460.716967580712	1.484212481786
0	76382	76462.729516441152	2.01254886044
0	76383	76463.843252485428	1.113736044276
0	76384	76464.170016012044	0.326763526616
0	76385	76464.239799124438	0.069783112394
0	76386	76465.155828827511	0.916029703073
0	76387	76468.722983449114	3.567154621603
0	76388	76472.398964327932	3.675980878818
0	76389	76474.964362217323	2.565397889391
0	76390	76476.647957492205	1.683595274882
0	76391	76479.735562749692	3.087605257487
0	76392	76479.944174435309	0.208611685617
0	76393	76480.202891157313	0.258716722004
0	76394	76481.09674643212	0.893855274807
0	76395	76481.368227275325	0.271480843205
0	76396	76482.257163458789	0.888936183464
0	76397	76482.414803690322	0.157640231533
0	76398	76484.475095717501	2.060292027179
0	76399	76485.624755452111	1.14965973461
0	76400	76487.279311656282	1.654556204171
0	76401	76487.932891668992	0.65358001271
0	76402	76488.114621002169	0.181729333177
0	76403	76489.223660648224	1.109039646055
0	76404	76489.783280264717	0.559619616493
0	76405	76490.241678900974	0.458398636257
0	76406	76491.616867995165	1.375189094191
0	76407	76492.571161317013	0.954293321848
0	76408	76495.512051002084	2.940889685071
0	76409	76495.526969061321	0.014918059237
0	76410	76496.481400438948	0.954431377627
0	76411	76496.81219320531	0.330792766362
0	76412	76497.563165086059	0.750971880749
0	76413	76499.17428481497	1.611119728911
0	76414	76501.407867456318	2.233582641348
0	76415	76501.857834709817	0.449967253499
0	76416	76503.863597786845	2.005763077028
0	76417	76506.108763765597	2.245165978752
0	76418	76506.419906182706	0.311142417109
0	76419	76506.736276047445	0.316369864739
0	76420	76507.024052945759	0.287776898314
0	76421	76507.992426895038	0.968373949279
0	76422	76508.975912892256	0.983485997218
0	76423	76509.258563927011	0.282651034755
0	76424	76510.333996284152	1.075432357141
0	76425	76510.414215348978	0.080219064826
0	76426	76510.470815984115	0.056600635137
0	76427	76511.054380008824	0.583564024709
0	76428	76512.317861582574	1.26348157375
0	76429	76514.135011066543	1.817149483969
0	76430	76514.893063045256	0.758051978713
0	76431	76515.93290075804	1.039837712784
0	76432	76519.41542887457	3.48252811653
0	76433	76519.658505549597	0.243076675027
0	76434	76520.606810358531	0.948304808934
0	76435	76521.931275660493	1.324465301962
0	76436	76523.343261769065	1.411986108572
0	76437	76525.562993918773	2.219732149708
0	76438	76525.954397981624	0.391404062851
0	76439	76529.390718713939	3.436320732315
0	76440	76529.639732275153	0.249013561214
0	76441	76529.760791959861	0.121059684708
0	76442	76531.450034376939	1.689242417078
0	76443	76533.376009363141	1.925974986202
0	76444	76533.928162149995	0.552152786854
0	76445	76535.420086371108	1.491924221113
0	76446	76535.571128478557	0.151042107449
0	76447	76535.833133402507	0.26200492395
0	76448	76536.402101193835	0.568967791328
0	76449	76537.143406483876	0.741305290041
0	76450	76537.257872218425	0.114465734549
0	76451	76537.527303833278	0.269431614853
0	76452	76537.986134664111	0.458830830833
0	76453	76538.936359057602	0.950224393491
0	76454	76540.432058395874	1.495699338272
0	76455	76540.689284909931	0.257226514057
0	76456	76541.093793099126	0.404508189195
0	76457	76541.44831935065	0.354526251524
0	76458	76543.420227157438	1.971907806788
0	76459	76545.760772891957	2.340545734519
0	76460	76547.082462563601	1.321689671644
0	76461	76547.123388269217	0.040925705616
0	76462	76547.742590300134	0.619202030917
0	76463	76547.973194666709	0.230604366575
0	76464	76549.053361362055	1.080166695346
0	76465	76549.396093048822	0.342731686767
0	76466	76550.064144466376	0.668051417554
0	76467	76552.049491713148	1.985347246772
0	76468	76553.085973215704	1.036481502556
0	76469	76556.813504885738	3.727531670034
0	76470	76558.870189850827	2.056684965089
0	76471	76560.667149266575	1.796959415748
0	76472	76561.153182651657	0.486033385082
0	76473	76566.041551954342	4.888369302685
0	76474	76567.152111493907	1.110559539565
0	76475	76567.583256633058	0.431145139151
0	76476	76567.917583275408	0.33432664235
0	76477	76569.27225694511	1.354673669702
0	76478	76572.053109969418	2.780853024308
0	76479	76572.207368919182	0.154258949764
0	76480	76574.37453305152	2.167164132338
0	76481	76574.996255102576	0.621722051056
0	76482	76578.48520026779	3.488945165214
0	76483	76578.965997820745	0.480797552955
0	76484	76580.079650528699	1.113652707954
0	76485	76580.599774825441	0.520124296742
0	76486	76581.215924965083	0.616150139642
0	76487	76581.542217563423	0.32629259834
0	76488	76582.462509557807	0.920291994384
0	76489	76583.270884982854	0.808375425047
0	76490	76585.189080802803	1.918195819949
0	76491	76585.90503579718	0.715954994377
0	76492	76587.02653237854	1.12149658136
0	76493	76590.291517822466	3.264985443926
0	76494	76591.776786108111	1.485268285645
0	76495	76593.852028793611	2.0752426855
0	76496	76594.150128747165	0.298099953554
0	76497	76595.678549347817	1.528420600652
0	76498	76596.039002931741	0.360453583924
0	76499	76596.1994882695	0.160485337759
0	76500	76598.3227724174	2.1232841479
0	76501	76599.281546612224	0.958774194824
0	76502	76600.334879490727	1.053332878503
0	76503	76600.870286148524	0.535406657797
0	76504	76601.530947267619	0.660661119095
0	76505	76602.764602921963	1.233655654344
0	76506	76603.529116839452	0.764513917489
0	76507	76603.560591266395	0.031474426943
0	76508	76604.287069681608	0.726478415213
0	76509	76604.68982527164	0.402755590032
0	76510	76604.795486918201	0.105661646561
0	76511	76604.889420989134	0.093934070933
0	76512	76604.997746418	0.108325428866
0	76513	76605.03354882405	0.03580240605
0	76514	76605.291446847215	0.257898023165
0	76515	76605.379307756751	0.087860909536
0	76516	76605.620274122263	0.240966365512
0	76517	76607.527607869689	1.907333747426
0	76518	76607.681740991524	0.154133121835
0	76519	76607.728139379282	0.046398387758
0	76520	76607.757016967168	0.028877587886
0	76521	76608.95939552195	1.202378554782
0	76522	76611.014455039103	2.055059517153
0	76523	76615.776969497329	4.762514458226
0	76524	76618.476073073579	2.69910357625
0	76525	76618.748137462186	0.272064388607
0	76526	76619.277141877238	0.529004415052
0	76527	76620.690614304157	1.413472426919
0	76528	76621.98495282635	1.294338522193
0	76529	76622.216262686853	0.231309860503
0	76530	76623.129951260896	0.913688574043
0	76531	76624.661092548494	1.531141287598
0	76532	76625.458121024417	0.797028475923
0	76533	76628.183429854504	2.725308830087
0	76534	76628.251779064056	0.068349209552
0	76535	76629.665717038625	1.413937974569
0	76536	76629.682397043215	0.01668000459
0	76537	76631.450505497307	1.768108454092
0	76538	76634.581424147069	3.130918649762
0	76539	76635.915290403615	1.333866256546
0	76540	76636.856303750257	0.941013346642
0	76541	76638.219300218904	1.362996468647
0	76542	76638.462220849195	0.242920630291
0	76543	76640.24526237256	1.783041523365
0	76544	76640.858189657682	0.612927285122
0	76545	76641.127434892123	0.269245234441
0	76546	76643.367655561246	2.240220669123
0	76547	76643.569299937992	0.201644376746
0	76548	76645.268969813862	1.69966987587
0	76549	76645.335238408129	0.066268594267
0	76550	76646.090077171736	0.754838763607
0	76551	76647.512007006697	1.421929834961
0	76552	76649.672268094008	2.160261087311
0	76553	76650.948308797212	1.276040703204
0	76554	76651.47774943466	0.529440637448
0	76555	76652.00599016065	0.52824072599
0	76556	76652.546663897513	0.540673736863
0	76557	76653.676739296457	1.130075398944
0	76558	76656.786347106812	3.109607810355
0	76559	76657.672996887308	0.886649780496
0	76560	76657.79834104172	0.125344154412
0	76561	76662.252037371482	4.453696329762
0	76562	76663.22749076239	0.975453390908
0	76563	76666.300538983825	3.073048221435
0	76564	76667.36769914816	1.067160164335
0	76565	76667.630163760545	0.262464612385
0	76566	76668.288039885575	0.65787612503
0	76567	76671.370517589484	3.082477703909
0	76568	76672.987882415443	1.617364825959
0	76569	76674.590893731753	1.60301131631
0	76570	76678.331106618906	3.740212887153
0	76571	76678.901955128989	0.570848510083
0	76572	76679.608678868633	0.706723739644
0	76573	76682.203980277246	2.595301408613
0	76574	76685.451942330249	3.247962053003
0	76575	76686.908862324505	1.456919994256
0	76576	76687.187737214059	0.278874889554
0	76577	76687.78979172317	0.602054509111
0	76578	76687.907793259505	0.118001536335
0	76579	76688.526624291622	0.618831032117
0	76580	76689.821278361704	1.294654070082
0	76581	76692.425879691794	2.60460133009
0	76582	76694.476720889242	2.050841197448
0	76583	76696.209279330472	1.73255844123
0	76584	76697.592944013668	1.383664683196
0	76585	76699.173234027741	1.580290014073
0	76586	76699.232720045407	0.059486017666
0	76587	76700.25200051834	1.019280472933
0	76588	76701.131905898976	0.879905380636
0	76589	76701.888477534153	0.756571635177
0	76590	76701.937230650671	0.048753116518
0	76591	76701.956442821509	0.019212170838
0	76592	76702.577786915325	0.621344093816
0	76593	76704.007093644619	1.429306729294
0	76594	76704.813662838429	0.80656919381
0	76595	76705.544999076878	0.731336238449
0	76596	76705.672095798221	0.127096721343
0	76597	76707.136423221089	1.464327422868
0	76598	76711.34067010943	4.204246888341
0	76599	76711.748767094878	0.408096985448
0	76600	76712.049064660699	0.300297565821
0	76601	76713.459108176074	1.410043515375
0	76602	76713.71528549122	0.256177315146
0	76603	76713.987245237538	0.271959746318
0	76604	76717.162882172739	3.175636935201
0	76605	76717.832894522905	0.670012350166
0	76606	76718.073575625464	0.240681102559
0	76607	76718.360786002717	0.287210377253
0	76608	76718.785515005082	0.424729002365
0	76609	76720.272848571451	1.487333566369
0	76610	76720.975348113101	0.70249954165
0	76611	76723.014659051431	2.03931093833
0	76612	76725.342242410241	2.32758335881
0	76613	76725.385532311613	0.043289901372
0	76614	76726.077839906314	0.692307594701
0	76615	76728.951672616458	2.873832710144
0	76616	76730.071254318738	1.11958170228
0	76617	76730.085541366449	0.014287047711
0	76618	76730.608630150205	0.523088783756
0	76619	76731.917965797567	1.309335647362
0	76620	76732.041009949906	0.123044152339
0	76621	76732.252812842873	0.211802892967
0	76622	76735.309827977832	3.057015134959
0	76623	76736.116223296183	0.806395318351
0	76624	76736.516410224412	0.400186928229
0	76625	76738.060005703777	1.543595479365
0	76626	76740.040192411425	1.980186707648
0	76627	76740.044416180188	0.004223768763
0	76628	76740.727852472768	0.68343629258
0	76629	76743.426317252662	2.698464779894
0	76630	76743.788042409783	0.361725157121
0	76631	76743.824119011647	0.036076601864
0	76632	76743.828370136806	0.004251125159
0	76633	76743.939908323333	0.111538186527
0	76634	76744.483759638247	0.543851314914
0	76635	76745.521126158853	1.037366520606
0	76636	76746.083048675756	0.561922516903
0	76637	76746.161015179878	0.077966504122
0	76638	76747.544587971665	1.383572791787
0	76639	76748.400259354008	0.855671382343
0	76640	76749.143689140996	0.743429786988
0	76641	76750.705022253916	1.56133311292
0	76642	76752.243726020532	1.538703766616
0	76643	76753.89133168988	1.647605669348
0	76644	76754.972731856634	1.081400166754
0	76645	76757.249004881653	2.276273025019
0	76646	76758.194939745466	0.945934863813
0	76647	76758.323819317448	0.128879571982
0	76648	76758.631881041213	0.308061723765
0	76649	76758.924953232717	0.293072191504
0	76650	76759.307525423361	0.382572190644
0	76651	76759.335185207162	0.027659783801
0	76652	76759.650844803225	0.315659596063
0	76653	76761.309420929129	1.658576125904
0	76654	76762.135346032823	0.825925103694
0	76655	76762.894476063301	0.759130030478
0	76656	76763.456071109938	0.561595046637
0	76657	76765.066424160638	1.6103530507
0	76658	76766.848215199928	1.78179103929
0	76659	76770.544571772052	3.696356572124
0	76660	76771.604970110354	1.060398338302
0	76661	76772.123657071373	0.518686961019
0	76662	76773.400191499516	1.276534428143
0	76663	76773.556873576167	0.156682076651
0	76664	76773.722156488305	0.165282912138
0	76665	76774.233185263704	0.511028775399
0	76666	76775.261927752928	1.028742489224
0	76667	76775.867470031718	0.60554227879
0	76668	76777.986467308549	2.118997276831
0	76669	76779.455678449251	1.469211140702
0	76670	76779.997693122102	0.542014672851
0	76671	76780.065270643607	0.067577521505
0	76672	76780.695628070614	0.630357427007
0	76673	76783.330001670429	2.634373599815
0	76674	76783.886606447322	0.556604776893
0	76675	76784.100051741076	0.213445293754
0	76676	76784.893015622935	0.792963881859
0	76677	76784.896972812527	0.003957189592
0	76678	76785.541611568136	0.644638755609
0	76679	76786.664942377273	1.123330809137
0	76680	76787.250424842482	0.585482465209
0	76681	76788.200705765447	0.950280922965
0	76682	76789.067961336254	0.867255570807
0	76683	76789.073142451497	0.005181115243
0	76684	76789.540691875036	0.467549423539
0	76685	76790.259553655524	0.718861780488
0	76686	76791.60752714909	1.347973493566
0	76687	76791.90930318593	0.30177603684
0	76688	76793.133858022136	1.224554836206
0	76689	76793.672281579326	0.53842355719
0	76690	76793.790693449778	0.118411870452
0	76691	76797.685560317963	3.894866868185
0	76692	76798.330734775049	0.645174457086
0	76693	76798.761373079883	0.430638304834
0	76694	76802.546575101551	3.785202021668
0	76695	76802.700747714964	0.154172613413
0	76696	76804.731955744723	2.031208029759
0	76697	76805.933575744126	1.201619999403
0	76698	76806.168373074472	0.234797330346
0	76699	76806.627775565346	0.459402490874
0	76700	76807.151749117855	0.523973552509
0	76701	76807.819888176801	0.668139058946
0	76702	76811.046082863552	3.226194686751
0	76703	76811.060270751343	0.014187887791
0	76704	76811.42954657024	0.369275818897
0	76705	76811.762869699972	0.333323129732
0	76706	76812.081319216399	0.318449516427
0	76707	76812.883963851678	0.802644635279
0	76708	76812.898959107564	0.014995255886
0	76709	76814.211946325648	1.312987218084
0	76710	76814.318517020179	0.106570694531
0	76711	76814.671515626157	0.352998605978
0	76712	76815.250601717283	0.579086091126
0	76713	76815.559583209316	0.308981492033
0	76714	76816.276909634252	0.717326424936
0	76715	76816.667496257234	0.390586622982
0	76716	76817.815982420735	1.148486163501
0	76717	76818.135967110491	0.319984689756
0	76718	76818.226060414747	0.090093304256
0	76719	76818.799276288138	0.573215873391
0	76720	76819.157654910409	0.358378622271
0	76721	76819.927351317208	0.769696406799
0	76722	76820.023857619135	0.096506301927
0	76723	76820.78364426293	0.759786643795
0	76724	76820.967318095172	0.183673832242
0	76725	76821.273604140642	0.30628604547
0	76726	76823.074156929704	1.800552789062
0	76727	76823.177848304999	0.103691375295
0	76728	76823.26377793719	0.085929632191
0	76729	76824.520468491028	1.256690553838
0	76730	76825.178382150151	0.657913659123
0	76731	76826.292727522214	1.114345372063
0	76732	76826.389102447402	0.096374925188
0	76733	76827.240107977685	0.851005530283
0	76734	76830.305196764596	3.065088786911
0	76735	76831.019234501569	0.714037736973
0	76736	76833.120212799313	2.100978297744
0	76737	76833.433373668933	0.31316086962
0	76738	76833.939160692495	0.505787023562
0	76739	76835.105684266455	1.16652357396
0	76740	76835.420733629598	0.315049363143
0	76741	76838.633718222058	3.21298459246
0	76742	76840.99392049722	2.360202275162
0	76743	76841.310019794664	0.316099297444
0	76744	76842.118035588318	0.808015793654
0	76745	76842.332504138675	0.214468550357
0	76746	76843.715401660625	1.38289752195
0	76747	76844.759109817351	1.043708156726
0	76748	76844.873397567301	0.11428774995
0	76749	76844.964406302777	0.091008735476
0	76750	76846.706647912097	1.74224160932
0	76751	76848.08453932182	1.377891409723
0	76752	76848.858316913112	0.773777591292
0	76753	76850.518567548279	1.660250635167
0	76754	76850.847574353799	0.32900680552
0	76755	76852.51420816188	1.666633808081
0	76756	76852.64907705691	0.13486889503
0	76757	76852.807378521713	0.158301464803
0	76758	76852.851826247146	0.044447725433
0	76759	76853.593925463112	0.742099215966
0	76760	76853.994735819639	0.400810356527
0	76761	76854.201994041801	0.207258222162
0	76762	76856.102130442939	1.900136401138
0	76763	76856.262246326769	0.16011588383
0	76764	76859.234562563853	2.972316237084
0	76765	76859.251778594921	0.017216031068
0	76766	76859.969909871673	0.718131276752
0	76767	76865.052518272126	5.082608400453
0	76768	76866.915487858038	1.862969585912
0	76769	76868.106052374008	1.19056451597
0	76770	76868.695636480799	0.589584106791
0	76771	76869.391989292318	0.696352811519
0	76772	76869.888998386964	0.497009094646
0	76773	76871.074343442855	1.185345055891
0	76774	76872.30509113004	1.230747687185
0	76775	76875.172228302967	2.867137172927
0	76776	76876.11334099319	0.941112690223
0	76777	76876.955832699606	0.842491706416
0	76778	76877.137590584317	0.181757884711
0	76779	76877.788129170862	0.650538586545
0	76780	76878.347195455791	0.559066284929
0	76781	76880.755442505622	2.408247049831
0	76782	76881.761309522971	1.005867017349
0	76783	76883.14568083214	1.384371309169
0	76784	76884.016041001292	0.870360169152
0	76785	76885.426199041312	1.41015804002
0	76786	76885.517119112461	0.090920071149
0	76787	76886.19819959078	0.681080478319
0	76788	76886.619079654675	0.420880063895
0	76789	76888.379221404779	1.760141750104
0	76790	76888.65846226597	0.279240861191
0	76791	76888.920526798504	0.262064532534
0	76792	76889.634911646047	0.714384847543
0	76793	76891.104342173975	1.469430527928
0	76794	76891.253611084231	0.149268910256
0	76795	76891.410511977468	0.156900893237
0	76796	76892.296315843159	0.885803865691
0	76797	76892.874260030584	0.577944187425
0	76798	76893.459518655401	0.585258624817
0	76799	76893.698881940425	0.239363285024
0	76800	76894.338320897141	0.639438956716
0	76801	76896.129651765328	1.791330868187
0	76802	76896.43088210683	0.301230341502
0	76803	76896.612391599079	0.181509492249
0	76804	76897.366080918344	0.753689319265
0	76805	76897.97492559769	0.608844679346
0	76806	76901.003433654167	3.028508056477
0	76807	76901.803399608649	0.799965954482
0	76808	76902.879995410014	1.076595801365
0	76809	76903.393864692925	0.513869282911
0	76810	76905.148538325488	1.754673632563

