                                                                
version 2
run General-0-20180111-16:58:18-5772
attr configname General
attr datetime 20180111-16:58:18
attr experiment General
attr inifile carrefour.ini
attr iterationvars ""
attr iterationvarsf ""
attr measurement ""
attr network Carrefour
attr processid 5772
attr repetition 0
attr replication #0
attr resultdir results
attr runnumber 0
attr seedset 0
param **.lambda 101
param **.numeroCasse 2
param **.mu 180
param **.tipoSimulazione 1
param **.delay 0
param **.ServiceType 0

vector 0 Carrefour.coda 1_Lambda:vector ETV
attr source Interarrivals
attr title "1/lambda, vector"
vector 1 Carrefour.coda E_Nq:vector ETV
attr source QueueLenght
attr title "E[Nq], vector"
vector 2 Carrefour.coda E_W:vector ETV
attr source Queuing
attr title "E[W], vector"
vector 3 Carrefour.decisore E_R:vector ETV
attr source TotalTime
attr title "E[R], vector"
vector 4 Carrefour.decisore ActiveTillStat:vector ETV
attr source ActiveTill
attr title "Active Till, vector"
0	997 1482024 1 98297 7 3273523.625604794254 32768 0.004817369493 1054.7706433458 3273523.6256048 655889379.96778
1	1483021 1030068 1 98297 7 3273523.625604794254 32768 0 0 0 0
2	2513089 1030068 1 98297 7 3273523.625604794254 32768 0 0 0 0
3	3543157 1485104 5 98320 68.412204858472 3274257.298413760542 32768 0.020897591008 7944.3880546008 32809366.965989 65050550107.816
4	5028261 1030371 5 98320 68.412204858472 3274257.298413760542 32768 0 1 16038 16038
0	6058632 1529120 98300 196601 3273562.005381573924 6594975.27367029524 32768 0.001088627195 1036.1279380679 3321451.6480655 676228787.21868
1	7587752 1077084 98300 196601 3273562.005381573924 6594975.27367029524 32768 0 0 0 0
2	8664836 1077084 98300 196601 3273562.005381573924 6594975.27367029524 32768 0 0 0 0
3	9741920 1531975 98323 196622 3274314.202000190091 6596180.627615790866 32768 0.008470824933 7205.931925941 34958933.058502 77678611063.723
4	11273895 1077221 98323 196622 3274314.202000190091 6596180.627615790866 32768 0 1 15977 15977
