version 2
run General-1-20180202-18:51:45-6324
attr configname General
attr datetime 20180202-18:51:45
attr experiment General
attr inifile carrefour.ini
attr iterationvars $0=4
attr iterationvarsf 4-
attr measurement $0=4
attr network Carrefour
attr processid 6324
attr repetition 1
attr replication #1
attr resultdir results
attr runnumber 1
attr seedset 1
param **.lambda 4
param **.numeroCasse 10
param **.mu 30
param **.tipoSimulazione 0
param **.delay 0
param **.ServiceType 0

vector 0 Carrefour.coda 1_Lambda:vector ETV
attr source Interarrivals
attr title "1/lambda, vector"
vector 1 Carrefour.coda E_Nq:vector ETV
attr source QueueLenght
attr title "E[Nq], vector"
vector 2 Carrefour.coda E_W:vector ETV
attr source Queuing
attr title "E[W], vector"
vector 3 Carrefour.decisore E_R:vector ETV
attr source TotalTime
attr title "E[R], vector"
vector 4 Carrefour.decisore ActiveTillStat:vector ETV
attr source ActiveTill
attr title "Active Till, vector"
0	1	7	7
0	3	13.97636074964	6.97636074964
0	5	19.600274869229	5.623914119589
0	7	20.980753616412	1.380478747183
0	9	21.157530484483	0.176776868071
0	11	23.581915990777	2.424385506294
0	13	25.257004114016	1.675088123239
0	15	34.471361737836	9.21435762382
0	18	39.395047800584	4.923686062748
0	22	45.217956390606	5.822908590022
0	26	52.617420414966	7.39946402436
0	29	61.428806480904	8.811386065938
0	32	73.531523403039	12.102716922135
0	35	80.758651891198	7.227128488159
0	38	82.303881828164	1.545229936966
0	41	87.041134776252	4.737252948088
0	43	89.514185784683	2.473051008431
0	45	90.678770262507	1.164584477824
0	47	91.049511159988	0.370740897481
0	50	94.321258224684	3.271747064696
0	53	100.039656861232	5.718398636548
0	57	110.731810714328	10.692153853096
0	65	137.006247129438	26.27443641511
0	67	137.28416000785	0.277912878412
0	69	138.169723102602	0.885563094752
0	71	139.386224275483	1.216501172881
0	74	140.614519315517	1.228295040034
0	76	142.955177550684	2.340658235167
0	78	144.325858241664	1.37068069098
0	80	144.549476700077	0.223618458413
0	82	146.252226896499	1.702750196422
0	88	149.144553100702	2.892326204203
0	91	166.30872834358	17.164175242878
0	94	167.593914580903	1.285186237323
0	96	168.168966386046	0.575051805143
0	99	172.435875210398	4.266908824352
0	104	181.822365179245	9.386489968847
0	106	184.046987676288	2.224622497043
0	108	185.398845164356	1.351857488068
0	110	191.453341669384	6.054496505028
0	114	198.039981255015	6.586639585631
0	117	199.814666496111	1.774685241096
0	119	200.039060025311	0.2243935292
0	122	205.02803509951	4.988975074199
0	124	209.857269364627	4.829234265117
0	127	210.409522948776	0.552253584149
0	130	213.653606778623	3.244083829847
0	132	214.12323638017	0.469629601547
0	133	215.029053962255	0.905817582085
0	134	215.483148481254	0.454094518999
0	141	218.481158994227	2.998010512973
0	142	222.960795482021	4.479636487794
0	143	224.874361099066	1.913565617045
0	144	225.10012206233	0.225760963264
0	148	230.710746204157	5.610624141827
0	158	236.072419797609	5.361673593452
0	162	238.908370843686	2.835951046077
0	175	261.154799519347	22.246428675661
0	180	266.852177053511	5.697377534164
0	182	269.635182364221	2.78300531071
0	186	278.151020823079	8.515838458858
0	188	287.504557754344	9.353536931265
0	190	290.827234778824	3.32267702448
0	194	307.021504991078	16.194270212254
0	197	307.892375378715	0.870870387637
0	199	310.196253166048	2.303877787333
0	201	312.641565463791	2.445312297743
0	205	319.182926087993	6.541360624202
0	207	323.339970366154	4.157044278161
0	211	327.127751850483	3.787781484329
0	213	328.713080683081	1.585328832598
0	222	338.093192763035	9.380112079954
0	224	338.84365895191	0.750466188875
0	226	340.134237747307	1.290578795397
0	229	341.670948454325	1.536710707018
0	232	355.735856368666	14.064907914341
0	234	356.344180462003	0.608324093337
0	239	361.155620757655	4.811440295652
0	243	363.755200893876	2.599580136221
0	245	371.365349339111	7.610148445235
0	250	385.695029595057	14.329680255946
0	252	392.410514508696	6.715484913639
0	254	397.947197779812	5.536683271116
0	256	401.388496019787	3.441298239975
0	258	408.902490485268	7.513994465481
0	260	411.360048904283	2.457558419015
0	262	413.11726752189	1.757218617607
0	264	415.736879742724	2.619612220834
0	267	416.844726091784	1.10784634906
0	269	417.205364226711	0.360638134927
0	274	422.478671953666	5.273307726955
0	276	422.553164841865	0.074492888199
0	280	431.546728700174	8.993563858309
0	283	434.780321568653	3.233592868479
0	287	437.165012379995	2.384690811342
0	289	440.302837948501	3.137825568506
0	293	448.566063660886	8.263225712385
0	295	449.248873534104	0.682809873218
0	298	450.083528629633	0.834655095529
0	301	452.659669300857	2.576140671224
0	303	454.364544502619	1.704875201762
0	309	461.28928667416	6.924742171541
0	312	466.174294163174	4.885007489014
0	315	468.000556486168	1.826262322994
0	318	473.291937100032	5.291380613864
0	321	477.826236198979	4.534299098947
0	323	480.164879001001	2.338642802022
0	325	482.047442418056	1.882563417055
0	330	485.251408592033	3.203966173977
0	333	494.226426262996	8.975017670963
0	335	494.887232217741	0.660805954745
0	338	501.447366150824	6.560133933083
0	343	503.486003204293	2.038637053469
0	346	512.524156018126	9.038152813833
0	348	515.871156733889	3.347000715763
0	351	519.937994216928	4.066837483039
0	354	520.870990497999	0.932996281071
0	357	525.403328476423	4.532337978424
0	359	528.108558412643	2.70522993622
0	361	531.649547162485	3.540988749842
0	364	534.851400530711	3.201853368226
0	371	546.152492844812	11.301092314101
0	373	550.385501711955	4.233008867143
0	375	551.772807348544	1.387305636589
0	378	554.407869455453	2.635062106909
0	380	557.746615970146	3.338746514693
0	383	564.195433638227	6.448817668081
0	385	570.888929135637	6.69349549741
0	387	571.503920782298	0.614991646661
0	389	572.061136427203	0.557215644905
0	391	575.399871665455	3.338735238252
0	392	577.291833681976	1.891962016521
0	393	579.833635919684	2.541802237708
0	405	590.06508857233	10.231452652646
0	407	592.794048004848	2.728959432518
0	410	594.841227401165	2.047179396317
0	416	601.787214433593	6.945987032428
0	421	608.416675913965	6.629461480372
0	424	616.951155100491	8.534479186526
0	426	617.785124367355	0.833969266864
0	428	619.724490076753	1.939365709398
0	431	624.628017571995	4.903527495242
0	434	626.571781617406	1.943764045411
0	436	627.337667877314	0.765886259908
0	438	628.688602427661	1.350934550347
0	442	633.64624807851	4.957645650849
0	447	636.644049487538	2.997801409028
0	450	638.011175135402	1.367125647864
0	452	641.008538055377	2.997362919975
0	454	641.520617436808	0.512079381431
0	459	648.16787847044	6.647261033632
0	461	648.319402034674	0.151523564234
0	465	651.038915411807	2.719513377133
0	467	653.426602029703	2.387686617896
0	470	666.048402720545	12.621800690842
0	474	669.824226638841	3.775823918296
0	477	671.625475081223	1.801248442382
0	479	672.19361139393	0.568136312707
0	482	678.644404394226	6.450793000296
0	485	683.441769824858	4.797365430632
0	487	688.978935099221	5.537165274363
0	489	689.84801085042	0.869075751199
0	492	692.408969331128	2.560958480708
0	494	692.467690006574	0.058720675446
0	497	699.116537370451	6.648847363877
0	499	700.699237164026	1.582699793575
0	500	703.29275658271	2.593519418684
0	504	704.550245932712	1.257489350002
0	508	705.994282925561	1.444036992849
0	509	708.506679079231	2.51239615367
0	510	712.137742705163	3.631063625932
0	514	717.779479706879	5.641737001716
0	518	719.349136893119	1.56965718624
0	522	725.91197858779	6.562841694671
0	529	727.721464205685	1.809485617895
0	530	728.119739180128	0.398274974443
0	531	729.308235777755	1.188496597627
0	532	732.998991655701	3.690755877946
0	536	736.781267019296	3.782275363595
0	549	752.140100300036	15.35883328074
0	550	755.076570430887	2.936470130851
0	551	755.827249502207	0.75067907132
0	552	757.628259749146	1.801010246939
0	562	761.828471580687	4.200211831541
0	563	766.423805910161	4.595334329474
0	567	774.294473802158	7.870667891997
0	574	779.950353695131	5.655879892973
0	578	789.751674782988	9.801321087857
0	585	803.22775878663	13.476084003642
0	586	805.943158937386	2.715400150756
0	599	816.36046498807	10.417306050684
0	600	816.692304854939	0.331839866869
0	607	817.465289705637	0.772984850698
0	612	818.278497334648	0.813207629011
0	617	822.36196214342	4.083464808772
0	619	822.536867154289	0.174905010869
0	625	829.199216131882	6.662348977593
0	629	834.312928981529	5.113712849647
0	632	852.111629822328	17.798700840799
0	635	863.430509961292	11.318880138964
0	637	863.645286612082	0.21477665079
0	639	864.047850135719	0.402563523637
0	642	866.284927753686	2.237077617967
0	644	867.414794676834	1.129866923148
0	646	868.870855576164	1.45606089933
0	651	871.112958855429	2.242103279265
0	655	885.095064500481	13.982105645052
0	658	889.624958841479	4.529894340998
0	661	895.464108051479	5.83914921
0	664	897.645965558843	2.181857507364
0	667	902.051930912278	4.405965353435
0	669	905.809108782623	3.757177870345
0	673	914.732540831953	8.92343204933
0	675	914.988432387017	0.255891555064
0	677	919.526945976992	4.538513589975
0	681	920.91988214712	1.392936170128
0	684	925.262861435137	4.342979288017
0	687	926.305333115426	1.042471680289
0	690	932.276403432208	5.971070316782
0	692	933.244340097944	0.967936665736
0	694	934.787084097218	1.542743999274
0	698	940.641674162888	5.85459006567
0	700	940.780629494221	0.138955331333
0	703	956.985195454735	16.204565960514
0	706	969.740293193995	12.75509773926
0	709	972.566344554629	2.826051360634
0	714	980.351446830639	7.78510227601
0	722	990.022252821802	9.670805991163
0	724	994.159257755482	4.13700493368
0	727	998.667605303007	4.508347547525
0	729	1004.424133070035	5.756527767028
0	731	1011.980314927393	7.556181857358
0	733	1013.768384491192	1.788069563799
0	736	1016.616344732466	2.847960241274
0	738	1017.083283777645	0.466939045179
0	740	1017.166939131301	0.083655353656
0	742	1018.653826058916	1.486886927615
0	744	1018.776694409868	0.122868350952
0	747	1020.496905622402	1.720211212534
0	749	1021.745303825772	1.24839820337
0	753	1031.556672205414	9.811368379642
0	757	1032.474672892986	0.918000687572
0	758	1033.853647634443	1.378974741457
0	767	1043.658188785965	9.804541151522
0	773	1053.865658712791	10.207469926826
0	776	1055.67975542011	1.814096707319
0	780	1061.242183514048	5.562428093938
0	782	1062.014349318067	0.772165804019
0	784	1064.070416956554	2.056067638487
0	786	1064.996449214547	0.926032257993
0	788	1065.437671255202	0.441222040655
0	790	1065.801007929642	0.36333667444
0	792	1066.509041719419	0.708033789777
0	793	1072.55697604401	6.047934324591
0	804	1086.148340438128	13.591364394118
0	806	1091.002160129241	4.853819691113
0	809	1095.004280649985	4.002120520744
0	811	1096.840936290483	1.836655640498
0	813	1096.961442079768	0.120505789285
0	816	1099.818656602056	2.857214522288
0	819	1105.244093892645	5.425437290589
0	824	1110.776341728094	5.532247835449
0	826	1115.024476832635	4.248135104541
0	829	1116.045603452818	1.021126620183
0	831	1116.709713311455	0.664109858637
0	833	1117.797079279501	1.087365968046
0	834	1125.813316761331	8.01623748183
0	838	1128.286967407419	2.473650646088
0	846	1136.982480268925	8.695512861506
0	852	1150.663039550672	13.680559281747
0	854	1154.209885132711	3.546845582039
0	858	1167.241742909619	13.031857776908
0	862	1176.412209028876	9.170466119257
0	864	1180.77700282084	4.364793791964
0	866	1181.067739059096	0.290736238256
0	870	1183.312326035126	2.24458697603
0	874	1188.955198020384	5.642871985258
0	876	1191.493119975378	2.537921954994
0	880	1203.705539665941	12.212419690563
0	883	1208.437399505932	4.731859839991
0	886	1213.465558345237	5.028158839305
0	888	1213.707817688937	0.2422593437
0	892	1227.621109548157	13.91329185922
0	894	1227.682654526606	0.061544978449
0	898	1228.182871796233	0.500217269627
0	900	1233.110408943378	4.927537147145
0	902	1233.162995342468	0.05258639909
0	910	1243.489692867206	10.326697524738
0	913	1247.796686664214	4.306993797008
0	915	1252.042611573342	4.245924909128
0	919	1257.484157022921	5.441545449579
0	922	1258.585009874433	1.100852851512
0	924	1258.675219523082	0.090209648649
0	928	1270.220346449474	11.545126926392
0	930	1272.979195099637	2.758848650163
0	932	1273.609930012025	0.630734912388
0	934	1279.473585874302	5.863655862277
0	936	1282.217156146558	2.743570272256
0	938	1289.110498169579	6.893342023021
0	941	1296.018638103211	6.908139933632
0	946	1301.415530481463	5.396892378252
0	949	1304.442370964972	3.026840483509
0	951	1305.402233941782	0.95986297681
0	953	1305.984379519758	0.582145577976
0	955	1307.483617911233	1.499238391475
0	958	1310.397204243179	2.913586331946
0	960	1310.503828818733	0.106624575554
0	962	1311.581414253234	1.077585434501
0	963	1311.641423458104	0.06000920487
0	971	1321.043286267791	9.401862809687
0	975	1326.478601936895	5.435315669104
0	979	1330.30411210046	3.825510163565
0	984	1347.690064933954	17.385952833494
0	988	1351.793434268948	4.103369334994
0	990	1352.324839839031	0.531405570083
0	992	1352.447784939007	0.122945099976
0	995	1353.576708676645	1.128923737638
0	998	1355.442448724636	1.865740047991
0	1000	1365.323476777717	9.881028053081
0	1002	1365.609477095796	0.286000318079
0	1004	1366.339757687049	0.730280591253
0	1010	1381.358012471729	15.01825478468
0	1012	1381.544831493807	0.186819022078
0	1014	1382.678817552367	1.13398605856
0	1016	1382.990709010783	0.311891458416
0	1018	1383.713708715505	0.722999704722
0	1024	1390.222776718712	6.509068003207
0	1028	1394.048891314396	3.826114595684
0	1030	1396.963743716158	2.914852401762
0	1032	1397.146384683377	0.182640967219
0	1035	1399.350767655718	2.204382972341
0	1038	1408.801801871466	9.451034215748
0	1045	1429.047877610985	20.246075739519
0	1048	1429.841176043681	0.793298432696
0	1051	1433.2622569153	3.421080871619
0	1053	1433.981295410016	0.719038494716
0	1057	1441.001548345174	7.020252935158
0	1059	1448.528973923949	7.527425578775
0	1062	1454.884359798616	6.355385874667
0	1064	1455.397311407562	0.512951608946
0	1066	1457.908099037135	2.510787629573
0	1068	1460.384284433195	2.47618539606
0	1072	1465.487220507948	5.102936074753
0	1074	1465.506902402808	0.01968189486
0	1076	1466.028036766406	0.521134363598
0	1077	1466.59798267173	0.569945905324
0	1081	1469.225718597018	2.627735925288
0	1091	1480.978707094093	11.752988497075
0	1093	1482.160030145122	1.181323051029
0	1096	1487.006554467973	4.846524322851
0	1102	1503.04825351978	16.041699051807
0	1104	1505.672356587407	2.624103067627
0	1106	1507.173840950832	1.501484363425
0	1110	1511.206746414094	4.032905463262
0	1114	1517.859835075362	6.653088661268
0	1116	1525.60923425221	7.749399176848
0	1118	1525.732887638035	0.123653385825
0	1121	1531.186457861413	5.453570223378
0	1123	1531.656208536758	0.469750675345
0	1129	1541.105435461667	9.449226924909
0	1132	1547.909457643639	6.804022181972
0	1134	1550.738831150218	2.829373506579
0	1136	1550.784335273893	0.045504123675
0	1138	1552.421999369898	1.637664096005
0	1141	1554.841728188996	2.419728819098
0	1143	1556.589209481933	1.747481292937
0	1146	1557.711709666559	1.122500184626
0	1150	1559.151958851501	1.440249184942
0	1153	1560.284237711463	1.132278859962
0	1155	1560.422898932144	0.138661220681
0	1157	1564.806537381308	4.383638449164
0	1162	1565.333755733828	0.52721835252
0	1164	1565.977071194194	0.643315460366
0	1165	1566.410614084947	0.433542890753
0	1169	1570.15715483647	3.746540751523
0	1170	1571.129752708924	0.972597872454
0	1171	1574.603617740267	3.473865031343
0	1181	1579.910692149224	5.307074408957
0	1191	1597.681519153698	17.770827004474
0	1193	1598.043438947217	0.361919793519
0	1196	1598.900995203859	0.857556256642
0	1198	1599.999355571282	1.098360367423
0	1203	1611.609348584232	11.60999301295
0	1206	1614.438059283724	2.828710699492
0	1209	1617.184763784851	2.746704501127
0	1211	1617.267566690268	0.082802905417
0	1214	1620.886160524403	3.618593834135
0	1216	1622.054977730316	1.168817205913
0	1220	1636.093239898608	14.038262168292
0	1223	1640.646181331001	4.552941432393
0	1225	1640.737144278792	0.090962947791
0	1227	1642.493660157453	1.756515878661
0	1231	1649.876030042294	7.382369884841
0	1232	1653.07484055569	3.198810513396
0	1233	1653.789834396365	0.714993840675
0	1237	1654.995383181209	1.205548784844
0	1238	1655.179795772856	0.184412591647
0	1239	1656.273186284016	1.09339051116
0	1246	1661.743862238722	5.470675954706
0	1247	1666.143812418507	4.399950179785
0	1263	1676.771037909507	10.627225491
0	1267	1682.064416533522	5.293378624015
0	1268	1682.125654229318	0.061237695796
0	1276	1687.749048005326	5.623393776008
0	1279	1692.56177332342	4.812725318094
0	1281	1695.636877242032	3.075103918612
0	1286	1699.328233081813	3.691355839781
0	1288	1700.530407781272	1.202174699459
0	1292	1712.41305831071	11.882650529438
0	1301	1730.780800357581	18.367742046871
0	1305	1735.80887860168	5.028078244099
0	1307	1739.279768499926	3.470889898246
0	1309	1740.726149354957	1.446380855031
0	1311	1743.440707158656	2.714557803699
0	1315	1752.362077373177	8.921370214521
0	1317	1752.767727832486	0.405650459309
0	1321	1756.466758316294	3.699030483808
0	1323	1756.671595203674	0.20483688738
0	1326	1757.537038474293	0.865443270619
0	1328	1759.663721810515	2.126683336222
0	1331	1760.50327021287	0.839548402355
0	1335	1763.870084699634	3.366814486764
0	1337	1765.052346803403	1.182262103769
0	1339	1765.641306353389	0.588959549986
0	1344	1775.998501238597	10.357194885208
0	1346	1779.237649060193	3.239147821596
0	1348	1785.071123665732	5.833474605539
0	1351	1788.138055487839	3.066931822107
0	1353	1788.255784031384	0.117728543545
0	1354	1789.467803164504	1.21201913312
0	1361	1795.975659041719	6.507855877215
0	1370	1806.830885646801	10.855226605082
0	1372	1806.943003491773	0.112117844972
0	1377	1817.19266539921	10.249661907437
0	1379	1820.381654884986	3.188989485776
0	1383	1827.568989964302	7.187335079316
0	1386	1837.527918338949	9.958928374647
0	1388	1838.581099616093	1.053181277144
0	1390	1843.704581909725	5.123482293632
0	1392	1847.417808225597	3.713226315872
0	1394	1850.097018985188	2.679210759591
0	1396	1853.865664162409	3.768645177221
0	1399	1856.445332525293	2.579668362884
0	1404	1867.198109993332	10.752777468039
0	1406	1867.90796424744	0.709854254108
0	1410	1870.666904686897	2.758940439457
0	1414	1875.042211386551	4.375306699654
0	1418	1883.89972574807	8.857514361519
0	1422	1894.208200026474	10.308474278404
0	1426	1897.953609014061	3.745408987587
0	1428	1901.651014231253	3.697405217192
0	1430	1902.208843780448	0.557829549195
0	1432	1904.652121753552	2.443277973104
0	1435	1905.100067426481	0.447945672929
0	1439	1913.908935601943	8.808868175462
0	1441	1916.145966413459	2.237030811516
0	1445	1927.874275457536	11.728309044077
0	1447	1928.116948637257	0.242673179721
0	1450	1928.716555334324	0.599606697067
0	1452	1930.519979070414	1.80342373609
0	1456	1935.396197134666	4.876218064252
0	1458	1938.424741055089	3.028543920423
0	1460	1939.085164306313	0.660423251224
0	1462	1939.925065855066	0.839901548753
0	1464	1943.704094405768	3.779028550702
0	1469	1952.455333461156	8.751239055388
0	1471	1952.752726255086	0.29739279393
0	1480	1969.591505607018	16.838779351932
0	1482	1970.313335517298	0.72182991028
0	1485	1974.93952448954	4.626188972242
0	1487	1977.394815894916	2.455291405376
0	1490	1982.778098305687	5.383282410771
0	1492	1983.48234425584	0.704245950153
0	1499	1997.55536636376	14.07302210792
0	1501	1998.213328124518	0.657961760758
0	1503	1998.779994083973	0.566665959455
0	1505	1999.972893109766	1.192899025793
0	1509	2005.65249814177	5.679605032004
0	1511	2010.732897203124	5.080399061354
0	1514	2015.742762771361	5.009865568237
0	1516	2016.712498330438	0.969735559077
0	1518	2016.825023738512	0.112525408074
0	1525	2026.933447268002	10.10842352949
0	1528	2028.554192132032	1.62074486403
0	1533	2045.583389127353	17.029196995321
0	1535	2046.151789747917	0.568400620564
0	1538	2051.748559102549	5.596769354632
0	1540	2056.94424593128	5.195686828731
0	1542	2057.632307836014	0.688061904734
0	1544	2061.301805205539	3.669497369525
0	1547	2063.693788662835	2.391983457296
0	1549	2071.037089346899	7.343300684064
0	1551	2071.248733461947	0.211644115048
0	1554	2073.998278277481	2.749544815534
0	1562	2083.531444789107	9.533166511626
0	1565	2084.681222547448	1.149777758341
0	1568	2086.431993182293	1.750770634845
0	1570	2089.634372190772	3.202379008479
0	1572	2098.367351031446	8.732978840674
0	1575	2103.232482816354	4.865131784908
0	1577	2106.4541377851	3.221654968746
0	1580	2107.820262192858	1.366124407758
0	1582	2109.936824600228	2.11656240737
0	1584	2111.963021190041	2.026196589813
0	1589	2125.334611495872	13.371590305831
0	1591	2126.704734331405	1.370122835533
0	1593	2127.875050586732	1.170316255327
0	1598	2135.189392497001	7.314341910269
0	1600	2137.068057571939	1.878665074938
0	1602	2138.823346449952	1.755288878013
0	1605	2140.10586856831	1.282522118358
0	1610	2147.211876572952	7.106008004642
0	1613	2152.019811967437	4.807935394485
0	1617	2156.523538404911	4.503726437474
0	1621	2164.114094965337	7.590556560426
0	1625	2177.219086671533	13.104991706196
0	1628	2191.736242485256	14.517155813723
0	1630	2192.186685648725	0.450443163469
0	1633	2195.176773551298	2.990087902573
0	1638	2202.058567564843	6.881794013545
0	1640	2205.56080441576	3.502236850917
0	1646	2215.882144928747	10.321340512987
0	1648	2219.498204667227	3.61605973848
0	1650	2221.078715671363	1.580511004136
0	1653	2223.544028084389	2.465312413026
0	1655	2224.67730613925	1.133278054861
0	1659	2227.872633481859	3.195327342609
0	1661	2229.232005654493	1.359372172634
0	1663	2241.206369105485	11.974363450992
0	1667	2251.19372755823	9.987358452745
0	1669	2252.95289331992	1.75916576169
0	1671	2255.228005065873	2.275111745953
0	1674	2259.894838336295	4.666833270422
0	1677	2266.77416183268	6.879323496385
0	1682	2273.535892991952	6.761731159272
0	1684	2278.587473822102	5.05158083015
0	1686	2278.997718765602	0.4102449435
0	1691	2290.057374461493	11.059655695891
0	1693	2293.934274812226	3.876900350733
0	1696	2295.847851873602	1.913577061376
0	1698	2296.227767028233	0.379915154631
0	1701	2299.557319642358	3.329552614125
0	1704	2300.715329409321	1.158009766963
0	1706	2300.924712820365	0.209383411044
0	1709	2305.316239447225	4.39152662686
0	1713	2310.993647282531	5.677407835306
0	1715	2317.470608646406	6.476961363875
0	1720	2318.930161822882	1.459553176476
0	1722	2322.34332551672	3.413163693838
0	1724	2324.980199799137	2.636874282417
0	1728	2327.591782554745	2.611582755608
0	1732	2332.489821567301	4.898039012556
0	1737	2336.598853685106	4.109032117805
0	1742	2344.107585250681	7.508731565575
0	1745	2353.262618556189	9.155033305508
0	1748	2372.073274444932	18.810655888743
0	1750	2373.0394061699	0.966131724968
0	1752	2374.853097460929	1.813691291029
0	1755	2377.96753947088	3.114442009951
0	1757	2379.329559185482	1.362019714602
0	1761	2384.608467779445	5.278908593963
0	1765	2388.518344696372	3.909876916927
0	1767	2395.276706395723	6.758361699351
0	1769	2395.427387621516	0.150681225793
0	1771	2402.421345839346	6.99395821783
0	1773	2402.900247484165	0.478901644819
0	1775	2403.792886523735	0.89263903957
0	1778	2406.627881363335	2.8349948396
0	1780	2408.285049819845	1.65716845651
0	1782	2410.558417643608	2.273367823763
0	1786	2414.808372672168	4.24995502856
0	1789	2417.331582997087	2.523210324919
0	1791	2417.863578331671	0.531995334584
0	1796	2423.379800278341	5.51622194667
0	1800	2428.301180441436	4.921380163095
0	1802	2429.063503425905	0.762322984469
0	1804	2429.356660150574	0.293156724669
0	1807	2433.740191828077	4.383531677503
0	1809	2436.671841483438	2.931649655361
0	1812	2443.4575592421	6.785717758662
0	1817	2454.256199345676	10.798640103576
0	1819	2457.563970855847	3.307771510171
0	1821	2459.514734989106	1.950764133259
0	1823	2460.238832589999	0.724097600893
0	1824	2460.791531483629	0.55269889363
0	1831	2467.996378433186	7.204846949557
0	1840	2480.265417932574	12.269039499388
0	1843	2483.45858382173	3.193165889156
0	1845	2486.831084942936	3.372501121206
0	1848	2492.04021720405	5.209132261114
0	1850	2493.876560380071	1.836343176021
0	1854	2497.722277625167	3.845717245096
0	1856	2499.159732827312	1.437455202145
0	1862	2506.905066910498	7.745334083186
0	1867	2515.829953990533	8.924887080035
0	1869	2516.893962795359	1.064008804826
0	1871	2517.656363433333	0.762400637974
0	1873	2518.663980876455	1.007617443122
0	1877	2530.146617509952	11.482636633497
0	1879	2530.818787695262	0.67217018531
0	1883	2538.218178657493	7.399390962231
0	1885	2538.701441757491	0.483263099998
0	1887	2539.964407597212	1.262965839721
0	1889	2540.078617372844	0.114209775632
0	1892	2540.881608289874	0.80299091703
0	1894	2540.994971774338	0.113363484464
0	1897	2556.63573494817	15.640763173832
0	1900	2559.716399645252	3.080664697082
0	1902	2561.28471244907	1.568312803818
0	1905	2564.619666996959	3.334954547889
0	1907	2565.033249677889	0.41358268093
0	1908	2569.228053287832	4.194803609943
0	1912	2573.357682360664	4.129629072832
0	1916	2574.909818587741	1.552136227077
0	1917	2581.264985182603	6.355166594862
0	1921	2584.39519226794	3.130207085337
0	1925	2588.65112648145	4.25593421351
0	1926	2589.130683431637	0.479556950187
0	1933	2592.372020692293	3.241337260656
0	1940	2595.128776170524	2.756755478231
0	1941	2602.497635659618	7.368859489094
0	1948	2605.553199480666	3.055563821048
0	1949	2607.057277691066	1.5040782104
0	1959	2614.084983294813	7.027705603747
0	1963	2614.731995349051	0.647012054238
0	1967	2616.11477192184	1.382776572789
0	1968	2618.275993815149	2.161221893309
0	1969	2618.551917287981	0.275923472832
0	1973	2621.780868035282	3.228950747301
0	1984	2629.388099910859	7.607231875577
0	1987	2633.877038765876	4.488938855017
0	1989	2636.315612459342	2.438573693466
0	1993	2636.483185502272	0.16757304293
0	1997	2637.381240264362	0.89805476209
0	2002	2639.489636921426	2.108396657064
0	2005	2642.322095051861	2.832458130435
0	2008	2642.662866325496	0.340771273635
0	2010	2649.082227279167	6.419360953671
0	2011	2649.792053719087	0.70982643992
0	2015	2651.128325958261	1.336272239174
0	2016	2653.502608140302	2.374282182041
0	2017	2654.908195327498	1.405587187196
0	2021	2659.906720785031	4.998525457533
0	2022	2661.437343770427	1.530622985396
0	2032	2665.024286722183	3.586942951756
0	2042	2673.588520578305	8.564233856122
0	2043	2676.162422243122	2.573901664817
0	2054	2692.935805519655	16.773383276533
0	2058	2695.121756816006	2.185951296351
0	2060	2697.630043869458	2.508287053452
0	2062	2699.903228705925	2.273184836467
0	2065	2705.407145805582	5.503917099657
0	2067	2707.832176273738	2.425030468156
0	2072	2714.125784711584	6.293608437846
0	2076	2727.057907316171	12.932122604587
0	2078	2729.614364700275	2.556457384104
0	2080	2733.931740224266	4.317375523991
0	2082	2737.459785259434	3.528045035168
0	2084	2739.257799123352	1.798013863918
0	2087	2741.907201282277	2.649402158925
0	2089	2745.692053278111	3.784851995834
0	2090	2747.353489731527	1.661436453416
0	2094	2750.46062159003	3.107131858503
0	2098	2754.184589652787	3.723968062757
0	2107	2767.419645090083	13.235055437296
0	2109	2768.587870925118	1.168225835035
0	2111	2768.758251395972	0.170380470854
0	2112	2774.74561355338	5.987362157408
0	2121	2782.682237107266	7.936623553886
0	2123	2782.720227935326	0.03799082806
0	2127	2795.533180109107	12.812952173781
0	2129	2796.772939839732	1.239759730625
0	2132	2805.644232065815	8.871292226083
0	2136	2807.840336220422	2.196104154607
0	2138	2808.22518629349	0.384850073068
0	2140	2808.28239259756	0.05720630407
0	2149	2821.861920731406	13.579528133846
0	2152	2828.525645319054	6.663724587648
0	2156	2837.872997490648	9.347352171594
0	2158	2843.024372887197	5.151375396549
0	2160	2843.62327006916	0.598897181963
0	2162	2844.163740966034	0.540470896874
0	2165	2853.257624722002	9.093883755968
0	2168	2862.269105117595	9.011480395593
0	2172	2869.155773228714	6.886668111119
0	2174	2869.435497887399	0.279724658685
0	2180	2880.850587049815	11.415089162416
0	2182	2883.917689663134	3.067102613319
0	2184	2885.048941846576	1.131252183442
0	2188	2888.339969824526	3.29102797795
0	2190	2893.972586353013	5.632616528487
0	2193	2894.112173458792	0.139587105779
0	2195	2894.164622812468	0.052449353676
0	2200	2896.036024745653	1.871401933185
0	2202	2897.77339326348	1.737368517827
0	2205	2898.998761794862	1.225368531382
0	2207	2902.309819035572	3.31105724071
0	2209	2902.764307232366	0.454488196794
0	2212	2907.034568632271	4.270261399905
0	2214	2910.327591134757	3.293022502486
0	2217	2911.987782623349	1.660191488592
0	2221	2920.707189609639	8.71940698629
0	2223	2921.900158876667	1.192969267028
0	2226	2925.636963515035	3.736804638368
0	2228	2926.145062452721	0.508098937686
0	2232	2928.464665834071	2.31960338135
0	2239	2936.367412259855	7.902746425784
0	2241	2940.618137626275	4.25072536642
0	2245	2949.586689765135	8.96855213886
0	2247	2950.108233526944	0.521543761809
0	2251	2958.93287175118	8.824638224236
0	2253	2960.162093099317	1.229221348137
0	2255	2966.845234071081	6.683140971764
0	2262	2985.041653429193	18.196419358112
0	2266	2992.490658636965	7.449005207772
0	2268	2996.400153619657	3.909494982692
0	2271	3004.235268759684	7.835115140027
0	2274	3008.0547794177	3.819510658016
0	2276	3009.888144582123	1.833365164423
0	2279	3011.10017134392	1.212026761797
0	2282	3018.695853586614	7.595682242694
0	2285	3022.280819316788	3.584965730174
0	2289	3025.196704336747	2.915885019959
0	2292	3030.94899640727	5.752292070523
0	2294	3036.745750768633	5.796754361363
0	2296	3042.081692869593	5.33594210096
0	2300	3046.580097019271	4.498404149678
0	2304	3047.377473989159	0.797376969888
0	2309	3054.950193045244	7.572719056085
0	2312	3055.636759314995	0.686566269751
0	2314	3056.096551596265	0.45979228127
0	2316	3056.250634884004	0.154083287739
0	2318	3058.339626194947	2.088991310943
0	2323	3063.599044454047	5.2594182591
0	2327	3070.98785257285	7.388808118803
0	2331	3074.244682694452	3.256830121602
0	2333	3077.207237234108	2.962554539656
0	2335	3078.270414165952	1.063176931844
0	2337	3079.461172523876	1.190758357924
0	2339	3082.130446712255	2.669274188379
0	2342	3088.418936642996	6.288489930741
0	2346	3091.790930476726	3.37199383373
0	2350	3106.941336701799	15.150406225073
0	2352	3110.771036113182	3.829699411383
0	2354	3115.917377403196	5.146341290014
0	2360	3132.422919432463	16.505542029267
0	2363	3137.167220828263	4.7443013958
0	2365	3137.912459492063	0.7452386638
0	2368	3145.701425423006	7.788965930943
0	2370	3146.152987494308	0.451562071302
0	2373	3150.757845683001	4.604858188693
0	2377	3159.979860099496	9.222014416495
0	2380	3167.104464254553	7.124604155057
0	2383	3175.125910407883	8.02144615333
0	2385	3176.350625304898	1.224714897015
0	2387	3177.115927160625	0.765301855727
0	2391	3178.421480513496	1.305553352871
0	2393	3180.311836156143	1.890355642647
0	2396	3181.809981668699	1.498145512556
0	2401	3191.226780602042	9.416798933343
0	2403	3196.876459745994	5.649679143952
0	2405	3198.001566328493	1.125106582499
0	2407	3198.944684343984	0.943118015491
0	2409	3199.376248007035	0.431563663051
0	2413	3201.460300604341	2.084052597306
0	2415	3202.126237599566	0.665936995225
0	2418	3206.316928753676	4.19069115411
0	2421	3212.940757831463	6.623829077787
0	2425	3219.824758113977	6.884000282514
0	2427	3221.206095148642	1.381337034665
0	2429	3224.285046075389	3.078950926747
0	2431	3227.237283745906	2.952237670517
0	2432	3229.764743779338	2.527460033432
0	2433	3232.039357359724	2.274613580386
0	2434	3238.820007556798	6.780650197074
0	2435	3240.012145208462	1.192137651664
0	2445	3246.475552711379	6.463407502917
0	2449	3252.852133109094	6.376580397715
0	2453	3255.232567790836	2.380434681742
0	2457	3257.874108077625	2.641540286789
0	2461	3258.736390355633	0.862282278008
0	2476	3287.695666656152	28.959276300519
0	2482	3304.632711355267	16.937044699115
0	2485	3305.859956065504	1.227244710237
0	2487	3306.300225749406	0.440269683902
0	2489	3306.762256634446	0.46203088504
0	2491	3306.778707514349	0.016450879903
0	2493	3307.443395417229	0.66468790288
0	2497	3312.550742258411	5.107346841182
0	2500	3315.186669385774	2.635927127363
0	2502	3324.349871954395	9.163202568621
0	2506	3337.163185781778	12.813313827383
0	2508	3339.509341124768	2.34615534299
0	2511	3342.284229859756	2.774888734988
0	2514	3345.246348960183	2.962119100427
0	2517	3346.519262679672	1.272913719489
0	2519	3347.38811441194	0.868851732268
0	2522	3349.181720419702	1.793606007762
0	2527	3358.749069970551	9.567349550849
0	2529	3359.708417351995	0.959347381444
0	2532	3360.122789329053	0.414371977058
0	2534	3360.879070885048	0.756281555995
0	2536	3363.708914924648	2.8298440396
0	2539	3366.164760897311	2.455845972663
0	2542	3368.134056811886	1.969295914575
0	2544	3373.691816168245	5.557759356359
0	2546	3375.208937633881	1.517121465636
0	2551	3380.233129600887	5.024191967006
0	2553	3381.55636875868	1.323239157793
0	2557	3386.743419473683	5.187050715003
0	2561	3389.802782571126	3.059363097443
0	2565	3389.915630755541	0.112848184415
0	2569	3395.094144551553	5.178513796012
0	2573	3397.694951203833	2.60080665228
0	2574	3397.967110982963	0.27215977913
0	2582	3408.415115626448	10.448004643485
0	2585	3410.33956144757	1.924445821122
0	2588	3411.860325709259	1.520764261689
0	2593	3420.262026400297	8.401700691038
0	2595	3422.080095358422	1.818068958125
0	2597	3423.798518481285	1.718423122863
0	2599	3423.981156866173	0.182638384888
0	2603	3424.761936321879	0.780779455706
0	2607	3428.040229864411	3.278293542532
0	2611	3432.376623632842	4.336393768431
0	2616	3433.360086579477	0.983462946635
0	2618	3438.045220862364	4.685134282887
0	2624	3441.504829465286	3.459608602922
0	2627	3442.96442892148	1.459599456194
0	2630	3445.784884032394	2.820455110914
0	2633	3448.624765712942	2.839881680548
0	2635	3450.514792088424	1.890026375482
0	2637	3452.772464560952	2.257672472528
0	2641	3456.010244754135	3.237780193183
0	2646	3459.348445780888	3.338201026753
0	2650	3466.512409880196	7.163964099308
0	2653	3468.602161034897	2.089751154701
0	2655	3469.149137666449	0.546976631552
0	2657	3470.108203631912	0.959065965463
0	2661	3477.519319646646	7.411116014734
0	2665	3479.587688076559	2.068368429913
0	2672	3487.334650538616	7.746962462057
0	2675	3491.626294315524	4.291643776908
0	2677	3492.796283435464	1.16998911994
0	2679	3495.983629529607	3.187346094143
0	2684	3500.864126211059	4.880496681452
0	2688	3506.139135699506	5.275009488447
0	2690	3510.914287076929	4.775151377423
0	2692	3519.908126268525	8.993839191596
0	2695	3527.994837282877	8.086711014352
0	2697	3532.196712449078	4.201875166201
0	2702	3535.597571870087	3.400859421009
0	2704	3535.891760989241	0.294189119154
0	2709	3538.668688023623	2.776927034382
0	2711	3545.519216956129	6.850528932506
0	2713	3546.191606386482	0.672389430353
0	2715	3547.843837180263	1.652230793781
0	2718	3551.093789044234	3.249951863971
0	2723	3555.308002721065	4.214213676831
0	2725	3555.809852666322	0.501849945257
0	2728	3558.722387183932	2.91253451761
0	2731	3560.945382107935	2.222994924003
0	2737	3574.985335155921	14.039953047986
0	2741	3585.676006915684	10.690671759763
0	2744	3597.169861965044	11.49385504936
0	2746	3601.558650606817	4.388788641773
0	2748	3601.564791652963	0.006141046146
0	2750	3605.850886532394	4.286094879431
0	2752	3607.453618786972	1.602732254578
0	2756	3608.448538388536	0.994919601564
0	2758	3609.861942022098	1.413403633562
0	2760	3612.453413044932	2.591471022834
0	2764	3620.943982237356	8.490569192424
0	2769	3629.451238241545	8.507256004189
0	2773	3643.019541278258	13.568303036713
0	2776	3649.566860457305	6.547319179047
0	2779	3651.807667232533	2.240806775228
0	2781	3652.226537939673	0.41887070714
0	2783	3657.683201015045	5.456663075372
0	2788	3664.773315572185	7.09011455714
0	2790	3666.82238800696	2.049072434775
0	2793	3670.547784055994	3.725396049034
0	2795	3672.524803367548	1.977019311554
0	2800	3681.950288803322	9.425485435774
0	2804	3687.163055201143	5.212766397821
0	2806	3687.853595817904	0.690540616761
0	2810	3693.420538085421	5.566942267517
0	2812	3700.917949355145	7.497411269724
0	2816	3706.160086437796	5.242137082651
0	2818	3709.286053163283	3.125966725487
0	2820	3712.81711995776	3.531066794477
0	2823	3718.115239546732	5.298119588972
0	2827	3724.618678688733	6.503439142001
0	2830	3728.788758824788	4.170080136055
0	2832	3732.97112435861	4.182365533822
0	2835	3736.371422505736	3.400298147126
0	2837	3744.628128913574	8.256706407838
0	2842	3749.952383885764	5.32425497219
0	2845	3752.158096488881	2.205712603117
0	2849	3767.467579509147	15.309483020266
0	2853	3772.726025845562	5.258446336415
0	2855	3773.764671607573	1.038645762011
0	2859	3783.759621052934	9.994949445361
0	2862	3788.981455975548	5.221834922614
0	2864	3790.17617993682	1.194723961272
0	2866	3790.992840545244	0.816660608424
0	2868	3791.759950230781	0.767109685537
0	2871	3793.906036568581	2.1460863378
0	2873	3795.832701862129	1.926665293548
0	2876	3802.341783607723	6.509081745594
0	2878	3804.231339509215	1.889555901492
0	2881	3814.651147981207	10.419808471992
0	2885	3823.540951604534	8.889803623327
0	2888	3824.194602125431	0.653650520897
0	2890	3825.152587584745	0.957985459314
0	2892	3825.288915579343	0.136327994598
0	2895	3827.676059169233	2.38714358989
0	2899	3835.364045554063	7.68798638483
0	2902	3836.766169510043	1.40212395598
0	2904	3843.091808718392	6.325639208349
0	2908	3847.548612288011	4.456803569619
0	2910	3849.282489813693	1.733877525682
0	2914	3853.548931519571	4.266441705878
0	2919	3861.5914909305	8.042559410929
0	2922	3866.826737622652	5.235246692152
0	2925	3873.748784561769	6.922046939117
0	2928	3876.230493506363	2.481708944594
0	2933	3898.47716843558	22.246674929217
0	2935	3898.868944420396	0.391775984816
0	2937	3900.855990038389	1.987045617993
0	2941	3911.373557491807	10.517567453418
0	2944	3912.445850022107	1.0722925303
0	2946	3916.139345058024	3.693495035917
0	2948	3921.041643495819	4.902298437795
0	2950	3921.484732720946	0.443089225127
0	2953	3922.767559689778	1.282826968832
0	2955	3923.950162511291	1.182602821513
0	2958	3927.649065495103	3.698902983812
0	2962	3932.144201876773	4.49513638167
0	2965	3934.355617437831	2.211415561058
0	2967	3935.93810019423	1.582482756399
0	2970	3937.963190562588	2.025090368358
0	2972	3938.426952759376	0.463762196788
0	2973	3939.19490742993	0.767954670554
0	2980	3947.934034422286	8.739126992356
0	2985	3953.169821743108	5.235787320822
0	2987	3953.975985861294	0.806164118186
0	2988	3954.209898678897	0.233912817603
0	2989	3956.20292249744	1.993023818543
0	3003	3974.435575030692	18.232652533252
0	3005	3978.015542813631	3.579967782939
0	3010	3991.164983502071	13.14944068844
0	3012	3992.150096270505	0.985112768434
0	3016	3999.358880366955	7.20878409645
0	3019	3999.727314523464	0.368434156509
0	3021	4004.842161048098	5.114846524634
0	3025	4008.960632089164	4.118471041066
0	3027	4009.148889267461	0.188257178297
0	3029	4012.120198512544	2.971309245083
0	3034	4018.154553729626	6.034355217082
0	3036	4018.922597617032	0.768043887406
0	3039	4024.486130243482	5.56353262645
0	3041	4024.701473342691	0.215343099209
0	3045	4033.103172892444	8.401699549753
0	3048	4037.303751239599	4.200578347155
0	3053	4045.895764251415	8.592013011816
0	3056	4047.336463706115	1.4406994547
0	3061	4055.812444821961	8.475981115846
0	3063	4059.796178232305	3.983733410344
0	3068	4075.351593319173	15.555415086868
0	3070	4078.083556669972	2.731963350799
0	3073	4089.757461873885	11.673905203913
0	3075	4092.539945727969	2.782483854084
0	3077	4094.52788818659	1.987942458621
0	3079	4098.361532851035	3.833644664445
0	3082	4100.13907448795	1.777541636915
0	3084	4100.547117501644	0.408043013694
0	3088	4103.807985714926	3.260868213282
0	3090	4104.102391870719	0.294406155793
0	3093	4110.519660457924	6.417268587205
0	3096	4121.523319704076	11.003659246152
0	3099	4122.714798164494	1.191478460418
0	3104	4128.157259742373	5.442461577879
0	3106	4128.556323897647	0.399064155274
0	3108	4128.808900631508	0.252576733861
0	3110	4131.223220173867	2.414319542359
0	3113	4145.04667100962	13.823450835753
0	3115	4146.648137338228	1.601466328608
0	3119	4152.298972322776	5.650834984548
0	3126	4170.736927788368	18.437955465592
0	3129	4173.109529934454	2.372602146086
0	3131	4176.231196245874	3.12166631142
0	3133	4176.467359690605	0.236163444731
0	3135	4177.478738059668	1.011378369063
0	3138	4178.866878567855	1.388140508187
0	3143	4183.192625106679	4.325746538824
0	3146	4190.882140261173	7.689515154494
0	3149	4195.991413267831	5.109273006658
0	3153	4201.554157461928	5.562744194097
0	3155	4202.085139165294	0.530981703366
0	3158	4205.604174421822	3.519035256528
0	3160	4208.93158099702	3.327406575198
0	3162	4209.434580095807	0.502999098787
0	3164	4210.127097778219	0.692517682412
0	3166	4213.208283504212	3.081185725993
0	3169	4213.877051701071	0.668768196859
0	3171	4214.410345731652	0.533294030581
0	3176	4228.663515760479	14.253170028827
0	3178	4228.864258770478	0.200743009999
0	3181	4231.923011368456	3.058752597978
0	3183	4232.289019104777	0.366007736321
0	3186	4238.780004330851	6.490985226074
0	3188	4239.261814523233	0.481810192382
0	3189	4241.165855020215	1.904040496982
0	3190	4241.258249943468	0.092394923253
0	3200	4248.793580459143	7.535330515675
0	3205	4257.834966586012	9.041386126869
0	3207	4259.698452981604	1.863486395592
0	3208	4260.99081622016	1.292363238556
0	3215	4265.621459130422	4.630642910262
0	3221	4269.864275988556	4.242816858134
0	3223	4271.163691318658	1.299415330102
0	3225	4271.673474300209	0.509782981551
0	3226	4274.601486947476	2.928012647267
0	3230	4278.083038196639	3.481551249163
0	3231	4280.768296254671	2.685258058032
0	3238	4289.260202625196	8.491906370525
0	3245	4292.870956357538	3.610753732342
0	3246	4294.681001723594	1.810045366056
0	3253	4300.330011596158	5.649009872564
0	3257	4304.059181647014	3.729170050856
0	3261	4307.034788095503	2.975606448489
0	3272	4332.054089316503	25.019301221
0	3274	4335.510757481064	3.456668164561
0	3277	4338.965661687943	3.454904206879
0	3279	4344.287388595301	5.321726907358
0	3281	4347.858636452568	3.571247857267
0	3285	4349.857292958209	1.998656505641
0	3288	4360.653824078666	10.796531120457
0	3291	4361.70960521148	1.055781132814
0	3293	4366.031612205378	4.322006993898
0	3296	4367.725900009188	1.69428780381
0	3298	4367.792993844583	0.067093835395
0	3300	4368.276574933105	0.483581088522
0	3305	4377.729288857142	9.452713924037
0	3310	4390.9998321094	13.270543252258
0	3312	4391.215432566392	0.215600456992
0	3314	4391.775823603957	0.560391037565
0	3318	4398.212108737003	6.436285133046
0	3321	4398.997102864735	0.784994127732
0	3324	4405.231248809835	6.2341459451
0	3328	4420.122012099341	14.890763289506
0	3330	4420.760119812401	0.63810771306
0	3333	4423.911689246022	3.151569433621
0	3335	4425.26856751147	1.356878265448
0	3338	4429.934369088503	4.665801577033
0	3340	4435.663734933179	5.729365844676
0	3343	4437.411906273264	1.748171340085
0	3345	4444.749624198983	7.337717925719
0	3351	4454.886841788568	10.137217589585
0	3353	4455.804317085366	0.917475296798
0	3356	4456.392632307137	0.588315221771
0	3358	4457.026073741293	0.633441434156
0	3360	4461.972201844919	4.946128103626
0	3367	4471.676927478947	9.704725634028
0	3370	4477.664222981988	5.987295503041
0	3372	4481.469219167192	3.804996185204
0	3375	4482.320402935017	0.851183767825
0	3379	4488.660557676112	6.340154741095
0	3382	4493.342094569683	4.681536893571
0	3384	4494.079263767969	0.737169198286
0	3386	4496.664089257719	2.58482548975
0	3388	4498.80591962239	2.141830364671
0	3390	4504.179214095188	5.373294472798
0	3392	4505.427169761091	1.247955665903
0	3395	4506.279850117071	0.85268035598
0	3397	4507.971805287731	1.69195517066
0	3402	4517.540468252768	9.568662965037
0	3405	4518.354927357603	0.814459104835
0	3410	4525.966251483784	7.611324126181
0	3416	4540.142180464609	14.175928980825
0	3418	4542.318410225799	2.17622976119
0	3423	4544.068569819535	1.750159593736
0	3426	4551.748919316478	7.680349496943
0	3428	4553.650132094353	1.901212777875
0	3430	4555.848314396337	2.198182301984
0	3432	4556.127700608977	0.27938621264
0	3437	4561.395718234877	5.2680176259
0	3439	4562.696514523356	1.300796288479
0	3443	4575.14387031608	12.447355792724
0	3445	4576.971294684672	1.827424368592
0	3447	4577.588044037199	0.616749352527
0	3450	4583.370951698031	5.782907660832
0	3452	4583.417060041552	0.046108343521
0	3457	4589.091290618778	5.674230577226
0	3460	4589.808883451603	0.717592832825
0	3462	4590.086544437315	0.277660985712
0	3464	4593.254926002512	3.168381565197
0	3466	4593.679385358699	0.424459356187
0	3468	4594.070781157508	0.391395798809
0	3470	4596.318438898368	2.24765774086
0	3471	4599.96610529808	3.647666399712
0	3472	4600.310867996512	0.344762698432
0	3476	4609.703924540863	9.393056544351
0	3480	4611.71653331876	2.012608777897
0	3491	4623.746065277653	12.029531958893
0	3493	4623.866407366578	0.120342088925
0	3497	4628.675488604816	4.809081238238
0	3501	4629.456550441994	0.781061837178
0	3505	4631.063363295833	1.606812853839
0	3506	4631.390165542692	0.326802246859
0	3514	4639.453025919028	8.062860376336
0	3518	4644.183002922537	4.729977003509
0	3521	4646.111820269457	1.92881734692
0	3524	4648.115878050154	2.004057780697
0	3527	4649.603909884065	1.488031833911
0	3531	4653.029157132141	3.425247248076
0	3534	4655.506752082936	2.477594950795
0	3538	4662.249470774772	6.742718691836
0	3540	4664.403566572501	2.154095797729
0	3544	4669.476810944282	5.073244371781
0	3548	4674.907810948971	5.431000004689
0	3550	4676.760223131831	1.85241218286
0	3552	4677.059313794061	0.29909066223
0	3554	4677.200027997351	0.14071420329
0	3558	4682.104562705435	4.904534708084
0	3563	4687.83810137127	5.733538665835
0	3566	4694.775863616946	6.937762245676
0	3568	4702.254327345033	7.478463728087
0	3570	4702.853910829229	0.599583484196
0	3572	4702.925204474445	0.071293645216
0	3574	4705.237824650026	2.312620175581
0	3578	4710.434177954039	5.196353304013
0	3583	4725.127659217318	14.693481263279
0	3585	4727.368778341169	2.241119123851
0	3587	4731.009090127638	3.640311786469
0	3589	4734.465453375884	3.456363248246
0	3593	4748.970513864388	14.505060488504
0	3595	4749.551918960747	0.581405096359
0	3597	4750.595736097488	1.043817136741
0	3601	4762.332617588669	11.736881491181
0	3610	4771.100919271645	8.768301682976
0	3613	4772.638179745457	1.537260473812
0	3616	4782.014399859023	9.376220113566
0	3621	4789.141628608748	7.127228749725
0	3623	4790.255034622342	1.113406013594
0	3626	4798.858520993783	8.603486371441
0	3628	4800.1565762998	1.298055306017
0	3632	4812.075139942541	11.918563642741
0	3634	4812.137369360088	0.062229417547
0	3636	4812.258061651885	0.120692291797
0	3638	4813.301584214881	1.043522562996
0	3642	4820.113922819978	6.812338605097
0	3646	4821.503285349394	1.389362529416
0	3648	4823.511500604145	2.008215254751
0	3651	4830.741073331404	7.229572727259
0	3654	4831.443224453738	0.702151122334
0	3657	4836.080113001309	4.636888547571
0	3663	4842.636321519203	6.556208517894
0	3665	4842.716012972776	0.079691453573
0	3668	4844.985450210148	2.269437237372
0	3671	4851.06123619038	6.075785980232
0	3674	4854.841368785777	3.780132595397
0	3676	4856.211270188025	1.369901402248
0	3680	4860.913226040277	4.701955852252
0	3683	4862.568900064797	1.65567402452
0	3685	4866.047310412836	3.478410348039
0	3687	4869.111258761675	3.063948348839
0	3689	4873.535787736327	4.424528974652
0	3691	4876.718190816336	3.182403080009
0	3694	4881.228600084049	4.510409267713
0	3699	4889.908430855226	8.679830771177
0	3702	4896.286528574861	6.378097719635
0	3705	4901.392322333532	5.105793758671
0	3710	4905.363233534587	3.970911201055
0	3713	4908.125520211492	2.762286676905
0	3715	4908.653848603121	0.528328391629
0	3718	4912.012380916584	3.358532313463
0	3723	4917.494733508923	5.482352592339
0	3725	4918.680906702502	1.186173193579
0	3727	4918.77542871519	0.094522012688
0	3729	4919.223934825281	0.448506110091
0	3732	4923.828015310902	4.604080485621
0	3734	4924.629689590925	0.801674280023
0	3736	4925.811170229738	1.181480638813
0	3742	4939.341703747324	13.530533517586
0	3746	4946.717238766169	7.375535018845
0	3748	4953.844967279078	7.127728512909
0	3753	4964.513683702492	10.668716423414
0	3756	4972.113248248199	7.599564545707
0	3758	4972.949898380652	0.836650132453
0	3761	4979.921147256566	6.971248875914
0	3764	4984.007752193815	4.086604937249
0	3766	4986.09333616593	2.085583972115
0	3770	4993.354371646575	7.261035480645
0	3774	5002.627770389523	9.273398742948
0	3779	5016.214865504889	13.587095115366
0	3781	5018.180083627631	1.965218122742
0	3783	5019.951500650696	1.771417023065
0	3788	5025.302316136032	5.350815485336
0	3790	5027.301071185256	1.998755049224
0	3793	5029.667129269551	2.366058084295
0	3795	5031.489700801637	1.822571532086
0	3798	5033.504743988248	2.015043186611
0	3801	5039.512166374909	6.007422386661
0	3803	5040.405703508747	0.893537133838
0	3805	5040.938500895318	0.532797386571
0	3807	5044.126368765608	3.18786787029
0	3809	5044.7947101709	0.668341405292
0	3812	5048.478788899709	3.684078728809
0	3814	5054.29466301658	5.815874116871
0	3816	5058.084739668763	3.790076652183
0	3824	5068.299517212722	10.214777543959
0	3826	5070.098728532221	1.799211319499
0	3828	5073.14197058797	3.043242055749
0	3833	5078.172053404574	5.030082816604
0	3839	5098.230036056041	20.057982651467
0	3841	5101.291757897268	3.061721841227
0	3843	5104.269552718172	2.977794820904
0	3845	5107.452301562823	3.182748844651
0	3847	5109.136958995168	1.684657432345
0	3849	5110.270239405291	1.133280410123
0	3851	5111.472361005486	1.202121600195
0	3853	5112.490909492856	1.01854848737
0	3855	5114.747505121106	2.25659562825
0	3859	5119.501379216298	4.753874095192
0	3867	5134.580608641551	15.079229425253
0	3869	5136.21237340022	1.631764758669
0	3871	5139.45540865227	3.24303525205
0	3873	5144.639761199439	5.184352547169
0	3876	5146.045433328327	1.405672128888
0	3878	5147.6805975552	1.635164226873
0	3881	5149.881646968254	2.201049413054
0	3885	5152.143702318578	2.262055350324
0	3887	5154.429427791499	2.285725472921
0	3890	5155.815446602032	1.386018810533
0	3893	5161.133620641514	5.318174039482
0	3896	5164.789018709478	3.655398067964
0	3898	5164.955112688197	0.166093978719
0	3904	5176.860672320708	11.905559632511
0	3907	5181.788951367744	4.928279047036
0	3909	5183.697871414676	1.908920046932
0	3911	5184.225305409686	0.52743399501
0	3913	5186.20835488203	1.983049472344
0	3915	5189.250292174013	3.041937291983
0	3918	5192.833705441537	3.583413267524
0	3925	5202.920275412951	10.086569971414
0	3927	5203.84273282979	0.922457416839
0	3929	5207.399415870077	3.556683040287
0	3935	5221.793539487305	14.394123617228
0	3938	5226.519592512918	4.726053025613
0	3940	5229.625060237814	3.105467724896
0	3942	5232.751845622081	3.126785384267
0	3946	5238.7814967387	6.029651116619
0	3950	5256.604878954879	17.823382216179
0	3952	5257.516420173502	0.911541218623
0	3956	5260.500897729154	2.984477555652
0	3958	5261.964792140186	1.463894411032
0	3961	5266.659435100191	4.694642960005
0	3963	5267.058289054887	0.398853954696
0	3965	5267.110307318724	0.052018263837
0	3968	5271.21664237718	4.106335058456
0	3970	5272.797434655625	1.580792278445
0	3972	5276.313135710491	3.515701054866
0	3975	5277.693751022567	1.380615312076
0	3977	5278.137441969904	0.443690947337
0	3978	5279.197772391031	1.060330421127
0	3985	5287.098980979612	7.901208588581
0	3989	5293.239000959931	6.140019980319
0	3996	5300.505221955964	7.266220996033
0	4000	5307.082080002232	6.576858046268
0	4002	5309.702172941524	2.620092939292
0	4005	5312.799665653199	3.097492711675
0	4010	5322.67863802165	9.878972368451
0	4012	5328.82425069394	6.14561267229
0	4017	5332.666795739929	3.842545045989
0	4019	5336.776591429085	4.109795689156
0	4021	5338.359268217219	1.582676788134
0	4024	5344.890147779024	6.530879561805
0	4026	5346.655791439394	1.76564366037
0	4031	5351.009547944848	4.353756505454
0	4034	5367.898821286053	16.889273341205
0	4036	5374.331531903854	6.432710617801
0	4039	5377.353021597983	3.021489694129
0	4042	5379.393970068049	2.040948470066
0	4044	5381.125556369175	1.731586301126
0	4049	5392.073754806182	10.948198437007
0	4051	5394.047458460474	1.973703654292
0	4053	5394.690275941692	0.642817481218
0	4056	5397.508694786446	2.818418844754
0	4058	5398.760458241536	1.25176345509
0	4060	5399.493446482348	0.732988240812
0	4063	5405.121701965935	5.628255483587
0	4067	5409.065262246822	3.943560280887
0	4070	5413.991770441303	4.926508194481
0	4073	5418.307941760695	4.316171319392
0	4075	5418.910162980713	0.602221220018
0	4078	5424.040326215132	5.130163234419
0	4082	5429.62160059318	5.581274378048
0	4084	5429.815384886165	0.193784292985
0	4088	5440.49939443733	10.684009551165
0	4090	5442.431750944749	1.932356507419
0	4093	5446.436927345064	4.005176400315
0	4096	5449.363796239983	2.926868894919
0	4101	5458.900982980135	9.537186740152
0	4103	5459.149352331267	0.248369351132
0	4108	5463.490030618105	4.340678286838
0	4111	5468.299576321706	4.809545703601
0	4114	5473.220497373993	4.920921052287
0	4118	5480.418152200199	7.197654826206
0	4120	5483.571063746975	3.152911546776
0	4125	5486.151425623677	2.580361876702
0	4128	5493.301902766458	7.150477142781
0	4130	5496.302567959641	3.000665193183
0	4133	5502.887372154732	6.584804195091
0	4135	5504.562200621966	1.674828467234
0	4137	5506.455602300409	1.893401678443
0	4141	5516.97258753162	10.516985231211
0	4143	5518.346227145472	1.373639613852
0	4147	5522.182486976123	3.836259830651
0	4151	5528.536761932914	6.354274956791
0	4154	5530.594648086263	2.057886153349
0	4156	5532.316627435603	1.72197934934
0	4159	5537.392253771677	5.075626336074
0	4161	5539.926066530162	2.533812758485
0	4163	5540.651613647958	0.725547117796
0	4165	5542.144320171777	1.492706523819
0	4167	5543.719321226849	1.575001055072
0	4168	5544.137883561829	0.41856233498
0	4169	5548.111660999334	3.973777437505
0	4170	5550.471834728665	2.360173729331
0	4171	5551.566582164857	1.094747436192
0	4172	5552.660233894423	1.093651729566
0	4182	5558.677457715892	6.017223821469
0	4186	5560.974667213371	2.297209497479
0	4187	5562.357101891575	1.382434678204
0	4188	5563.117614936732	0.760513045157
0	4192	5563.735027671576	0.617412734844
0	4193	5563.75805255522	0.023024883644
0	4194	5563.825062881182	0.067010325962
0	4195	5564.854145955636	1.029083074454
0	4205	5578.481314240105	13.627168284469
0	4206	5581.270508176671	2.789193936566
0	4222	5594.758349278126	13.487841101455
0	4237	5602.800934764203	8.042585486077
0	4240	5606.555400713839	3.754465949636
0	4244	5608.542203490556	1.986802776717
0	4250	5613.935355047288	5.393151556732
0	4253	5617.573270941689	3.637915894401
0	4255	5620.788802700488	3.215531758799
0	4258	5622.719320260768	1.93051756028
0	4260	5623.37281780146	0.653497540692
0	4263	5624.326239570864	0.953421769404
0	4268	5642.386828019524	18.06058844866
0	4270	5644.443152621968	2.056324602444
0	4273	5649.109009222868	4.6658566009
0	4276	5653.485799312658	4.37679008979
0	4279	5655.707761501822	2.221962189164
0	4282	5664.372254034391	8.664492532569
0	4284	5665.368843342383	0.996589307992
0	4290	5674.711932510088	9.343089167705
0	4292	5677.728064907863	3.016132397775
0	4296	5684.821522121485	7.093457213622
0	4300	5691.752216024559	6.930693903074
0	4302	5693.748322468427	1.996106443868
0	4305	5699.859345534584	6.111023066157
0	4309	5707.731803235008	7.872457700424
0	4311	5708.932669011351	1.200865776343
0	4314	5720.995259192383	12.062590181032
0	4316	5721.082620458896	0.087361266513
0	4319	5722.266604122973	1.183983664077
0	4324	5727.864448572749	5.597844449776
0	4326	5730.788358606375	2.923910033626
0	4328	5731.154459761847	0.366101155472
0	4332	5737.398438502864	6.243978741017
0	4334	5738.834752693984	1.43631419112
0	4337	5740.206423541103	1.371670847119
0	4341	5748.930673187358	8.724249646255
0	4344	5750.43781034954	1.507137162182
0	4346	5751.025246471677	0.587436122137
0	4348	5752.512337312006	1.487090840329
0	4350	5753.432978065438	0.920640753432
0	4354	5758.560824378398	5.12784631296
0	4356	5760.043646782828	1.48282240443
0	4360	5763.605269456938	3.56162267411
0	4362	5770.199482376246	6.594212919308
0	4365	5771.681460439703	1.481978063457
0	4367	5771.936844464686	0.255384024983
0	4371	5773.882165320524	1.945320855838
0	4374	5775.222105759423	1.339940438899
0	4376	5775.329097714538	0.106991955115
0	4380	5778.911823736901	3.582726022363
0	4383	5785.751090738034	6.839267001133
0	4385	5786.873142890136	1.122052152102
0	4387	5787.345045566855	0.471902676719
0	4390	5798.259691577933	10.914646011078
0	4393	5801.869050777123	3.60935919919
0	4397	5808.693688799742	6.824638022619
0	4401	5814.741273171682	6.04758437194
0	4404	5815.845439497584	1.104166325902
0	4407	5816.569311666091	0.723872168507
0	4411	5829.196310257662	12.626998591571
0	4413	5832.605710745978	3.409400488316
0	4415	5833.414860578282	0.809149832304
0	4424	5850.662706516201	17.247845937919
0	4426	5851.077305683033	0.414599166832
0	4429	5858.736059272481	7.658753589448
0	4431	5869.341356983783	10.605297711302
0	4433	5876.000269998629	6.658913014846
0	4436	5878.498707264484	2.498437265855
0	4438	5878.60462885894	0.105921594456
0	4441	5882.801102708114	4.196473849174
0	4443	5883.385516023025	0.584413314911
0	4445	5887.395834091513	4.010318068488
0	4447	5892.03506618874	4.639232097227
0	4455	5910.431979547484	18.396913358744
0	4457	5911.496286476586	1.064306929102
0	4460	5912.273905058761	0.777618582175
0	4462	5914.266339119357	1.992434060596
0	4464	5914.880660971983	0.614321852626
0	4466	5914.905368100962	0.024707128979
0	4468	5919.359701398345	4.454333297383
0	4470	5921.270350206991	1.910648808646
0	4473	5927.696926199838	6.426575992847
0	4475	5928.903476793486	1.206550593648
0	4476	5931.64882426851	2.745347475024
0	4483	5937.594876716159	5.946052447649
0	4488	5939.733290255777	2.138413539618
0	4491	5944.71231545686	4.979025201083
0	4493	5945.045451468165	0.333136011305
0	4494	5945.18687215943	0.141420691265
0	4495	5947.076790327821	1.889918168391
0	4505	5953.309720719681	6.23293039186
0	4506	5955.029818418306	1.720097698625
0	4510	5956.908459458402	1.878641040096
0	4514	5959.96249360497	3.054034146568
0	4521	5964.631496888333	4.669003283363
0	4526	5967.530496205611	2.898999317278
0	4535	5989.492769908632	21.962273703021
0	4537	5990.18700003644	0.694230127808
0	4539	5991.092183859987	0.905183823547
0	4541	5991.622595889807	0.53041202982
0	4545	5996.283182501928	4.660586612121
0	4548	5999.551964207541	3.268781705613
0	4552	6011.917090016757	12.365125809216
0	4554	6017.843986444677	5.92689642792
0	4557	6020.68248071327	2.838494268593
0	4559	6022.204744101493	1.522263388223
0	4561	6023.337536491266	1.132792389773
0	4563	6024.792055272029	1.454518780763
0	4565	6025.044220534436	0.252165262407
0	4567	6030.557827095667	5.513606561231
0	4571	6033.416026527156	2.858199431489
0	4575	6039.607647044597	6.191620517441
0	4576	6042.427829131497	2.8201820869
0	4580	6043.165006102265	0.737176970768
0	4581	6047.157381531272	3.992375429007
0	4582	6049.827912944149	2.670531412877
0	4583	6051.916186246519	2.08827330237
0	4584	6052.14669157669	0.230505330171
0	4588	6052.782425704766	0.635734128076
0	4589	6053.002549267627	0.220123562861
0	4593	6055.759138587969	2.756589320342
0	4597	6059.20098563786	3.441847049891
0	4598	6059.643999561349	0.443013923489
0	4599	6062.014628373967	2.370628812618
0	4603	6063.499282524906	1.484654150939
0	4604	6065.00078432099	1.501501796084
0	4605	6067.039915174711	2.039130853721
0	4606	6071.056546871921	4.01663169721
0	4607	6073.806775845311	2.75022897339
0	4614	6079.775285285112	5.968509439801
0	4621	6084.97432977624	5.199044491128
0	4628	6091.942429589645	6.968099813405
0	4632	6094.747926662654	2.805497073009
0	4633	6096.308791467401	1.560864804747
0	4640	6098.515130474372	2.206339006971
0	4641	6099.048994724292	0.53386424992
0	4642	6099.394301708595	0.345306984303
0	4646	6102.759472867635	3.36517115904
0	4650	6104.727382013958	1.967909146323
0	4666	6125.97631706649	21.248935052532
0	4676	6130.741656053475	4.765338986985
0	4683	6139.957565759747	9.215909706272
0	4693	6152.64184221236	12.684276452613
0	4694	6153.926952089754	1.285109877394
0	4701	6156.806443274316	2.879491184562
0	4702	6158.657295612584	1.850852338268
0	4706	6159.772171725805	1.114876113221
0	4707	6161.101344178864	1.329172453059
0	4711	6164.191294453597	3.089950274733
0	4718	6169.808584487188	5.617290033591
0	4728	6175.061360516473	5.252776029285
0	4737	6195.887786997212	20.826426480739
0	4739	6195.924468063743	0.036681066531
0	4744	6206.828149284818	10.903681221075
0	4748	6211.167436256934	4.339286972116
0	4750	6215.692560055415	4.525123798481
0	4754	6226.161017520807	10.468457465392
0	4757	6228.563307325712	2.402289804905
0	4759	6233.364387748972	4.80108042326
0	4762	6235.379467484048	2.015079735076
0	4765	6243.661718560201	8.282251076153
0	4769	6247.009012222228	3.347293662027
0	4772	6250.15422124852	3.145209026292
0	4774	6259.388470624573	9.234249376053
0	4777	6262.044812266706	2.656341642133
0	4781	6265.194788620546	3.14997635384
0	4784	6278.963723717096	13.76893509655
0	4789	6281.17962225555	2.215898538454
0	4791	6283.604080120305	2.424457864755
0	4794	6285.417934850985	1.81385473068
0	4796	6286.572722223289	1.154787372304
0	4798	6287.743959315053	1.171237091764
0	4800	6291.822382546479	4.078423231426
0	4805	6300.648076063842	8.825693517363
0	4807	6301.614683369416	0.966607305574
0	4810	6304.43032445132	2.815641081904
0	4814	6318.750548582805	14.320224131485
0	4816	6318.995499646124	0.244951063319
0	4820	6326.730105200386	7.734605554262
0	4823	6328.187949648467	1.457844448081
0	4827	6333.681592408937	5.49364276047
0	4830	6339.299464878859	5.617872469922
0	4832	6340.627021622327	1.327556743468
0	4834	6341.87212201021	1.245100387883
0	4837	6344.676458144966	2.804336134756
0	4839	6349.068786269212	4.392328124246
0	4841	6351.391208330822	2.32242206161
0	4843	6351.887414204367	0.496205873545
0	4844	6353.154271502806	1.266857298439
0	4851	6356.985461690766	3.83119018796
0	4857	6365.295346653999	8.309884963233
0	4861	6371.138664800553	5.843318146554
0	4864	6372.011526981617	0.872862181064
0	4866	6373.178600225203	1.167073243586
0	4868	6373.93815055533	0.759550330127
0	4872	6381.900740017125	7.962589461795
0	4875	6387.287477568653	5.386737551528
0	4878	6388.518753585161	1.231276016508
0	4881	6395.557339555162	7.038585970001
0	4884	6398.620070512911	3.062730957749
0	4888	6403.582094718543	4.962024205632
0	4891	6408.958212066681	5.376117348138
0	4893	6413.172919257042	4.214707190361
0	4895	6416.238127593963	3.065208336921
0	4902	6428.374576575177	12.136448981214
0	4905	6436.709786350762	8.335209775585
0	4909	6447.47556510437	10.765778753608
0	4911	6447.672765138509	0.197200034139
0	4913	6447.728164063344	0.055398924835
0	4915	6449.844012017497	2.115847954153
0	4918	6452.453339748942	2.609327731445
0	4920	6455.558916132947	3.105576384005
0	4922	6461.906527287084	6.347611154137
0	4925	6467.598852775141	5.692325488057
0	4927	6468.876488955578	1.277636180437
0	4931	6472.735903530537	3.859414574959
0	4935	6476.545644396169	3.809740865632
0	4936	6476.806183930001	0.260539533832
0	4937	6477.124730788626	0.318546858625
0	4941	6481.283625833774	4.158895045148
0	4945	6486.403985434632	5.120359600858
0	4949	6488.066699597794	1.662714163162
0	4950	6489.716273699152	1.649574101358
0	4964	6496.863327788471	7.147054089319
0	4966	6497.279442779969	0.416114991498
0	4971	6503.035114190428	5.755671410459
0	4974	6513.332186609123	10.297072418695
0	4976	6513.866588852663	0.53440224354
0	4986	6529.990760200958	16.124171348295
0	4989	6532.313560691808	2.32280049085
0	4991	6537.247293073672	4.933732381864
0	4994	6542.953366089375	5.706073015703
0	4996	6544.505567547665	1.55220145829
0	5001	6550.135332286347	5.629764738682
0	5005	6557.379891450771	7.244559164424
0	5009	6573.738713713907	16.358822263136
0	5011	6576.358802751697	2.62008903779
0	5013	6584.46750658508	8.108703833383
0	5016	6589.310022597566	4.842516012486
0	5018	6596.9244926165	7.614470018934
0	5021	6597.514572839884	0.590080223384
0	5023	6598.814853493141	1.300280653257
0	5025	6600.039230438788	1.224376945647
0	5028	6603.238206158409	3.198975719621
0	5030	6603.809192864905	0.570986706496
0	5032	6606.554851405987	2.745658541082
0	5036	6609.407982893905	2.853131487918
0	5041	6614.106870202116	4.698887308211
0	5044	6614.949163083297	0.842292881181
0	5046	6615.220180579663	0.271017496366
0	5048	6615.912053812086	0.691873232423
0	5053	6623.566327173204	7.654273361118
0	5055	6624.738947124592	1.172619951388
0	5057	6625.600652187689	0.861705063097
0	5059	6626.249760224753	0.649108037064
0	5062	6629.389946341053	3.1401861163
0	5066	6634.552526408183	5.16258006713
0	5068	6636.975712694467	2.423186286284
0	5072	6639.363959488048	2.388246793581
0	5075	6643.037136217983	3.673176729935
0	5079	6654.902790036632	11.865653818649
0	5081	6654.996076548569	0.093286511937
0	5084	6658.532427747855	3.536351199286
0	5087	6661.055175615048	2.522747867193
0	5089	6662.696378385688	1.64120277064
0	5091	6664.908452764866	2.212074379178
0	5097	6673.674120679104	8.765667914238
0	5099	6673.977484370155	0.303363691051
0	5101	6675.663280743436	1.685796373281
0	5107	6680.809642570911	5.146361827475
0	5110	6682.060604573019	1.250962002108
0	5113	6694.182581575756	12.121977002737
0	5115	6695.326522788498	1.143941212742
0	5117	6695.740006410298	0.4134836218
0	5127	6715.569938538116	19.829932127818
0	5129	6716.736755078908	1.166816540792
0	5132	6718.086962503314	1.350207424406
0	5134	6718.484337977856	0.397375474542
0	5136	6719.220184240061	0.735846262205
0	5139	6724.353604109746	5.133419869685
0	5142	6730.205302933596	5.85169882385
0	5144	6730.375230498723	0.169927565127
0	5147	6733.313400945594	2.938170446871
0	5149	6733.776026263559	0.462625317965
0	5153	6741.965197670126	8.189171406567
0	5155	6745.210066732959	3.244869062833
0	5158	6747.139717918161	1.929651185202
0	5160	6752.156553829295	5.016835911134
0	5165	6754.625827487995	2.4692736587
0	5167	6755.175546507683	0.549719019688
0	5171	6760.126674393025	4.951127885342
0	5175	6765.328847822275	5.20217342925
0	5179	6766.836271484064	1.507423661789
0	5183	6772.503896646278	5.667625162214
0	5187	6778.322462137627	5.818565491349
0	5196	6801.368050307416	23.045588169789
0	5198	6803.992314221863	2.624263914447
0	5200	6805.580475930287	1.588161708424
0	5203	6807.52255630282	1.942080372533
0	5211	6828.075984188699	20.553427885879
0	5214	6829.685556859748	1.609572671049
0	5216	6832.420015229618	2.73445836987
0	5218	6834.277135816204	1.857120586586
0	5220	6835.592688067953	1.315552251749
0	5222	6835.705733838814	0.113045770861
0	5225	6837.846179368996	2.140445530182
0	5228	6840.709466445946	2.86328707695
0	5232	6845.974861527343	5.265395081397
0	5234	6846.027287468117	0.052425940774
0	5238	6849.007666125633	2.980378657516
0	5240	6849.325266766542	0.317600640909
0	5242	6852.435869273407	3.110602506865
0	5245	6856.246827895918	3.810958622511
0	5249	6862.465338095715	6.218510199797
0	5251	6863.574453540006	1.109115444291
0	5253	6864.783008819252	1.208555279246
0	5255	6874.361826291657	9.578817472405
0	5257	6876.115613159042	1.753786867385
0	5258	6877.324396852312	1.20878369327
0	5262	6879.108254713887	1.783857861575
0	5263	6879.899681980509	0.791427266622
0	5270	6884.932789630675	5.033107650166
0	5271	6886.851466342851	1.918676712176
0	5278	6893.670336382127	6.818870039276
0	5282	6897.877851317622	4.207514935495
0	5291	6903.767360386103	5.889509068481
0	5294	6910.89471449541	7.127354109307
0	5296	6912.392899689141	1.498185193731
0	5299	6915.663125535731	3.27022584659
0	5301	6916.768317551978	1.105192016247
0	5305	6918.451253144882	1.682935592904
0	5309	6920.443095064302	1.99184191942
0	5315	6925.859979716494	5.416884652192
0	5319	6932.237158826216	6.377179109722
0	5321	6937.585224226716	5.3480654005
0	5324	6938.348257427694	0.763033200978
0	5326	6939.353682538244	1.00542511055
0	5329	6952.294914238951	12.941231700707
0	5334	6962.459843943522	10.164929704571
0	5336	6964.636771613364	2.176927669842
0	5338	6968.256485304099	3.619713690735
0	5340	6969.142325700605	0.885840396506
0	5341	6971.530133986979	2.387808286374
0	5342	6974.835449624549	3.30531563757
0	5343	6975.011566778194	0.176117153645
0	5350	6981.742580307728	6.731013529534
0	5351	6981.746934376332	0.004354068604
0	5358	6986.206922762291	4.459988385959
0	5362	6987.15327079841	0.946348036119
0	5363	6991.035957252959	3.882686454549
0	5379	7006.291873850221	15.255916597262
0	5381	7008.084712578836	1.792838728615
0	5383	7009.057624101951	0.972911523115
0	5386	7009.748136067829	0.690511965878
0	5389	7011.010199509599	1.26206344177
0	5391	7012.773047739414	1.762848229815
0	5396	7014.773502583162	2.000454843748
0	5398	7021.270209632508	6.496707049346
0	5402	7024.840795984466	3.570586351958
0	5406	7026.166647939415	1.325851954949
0	5411	7029.360408093585	3.19376015417
0	5413	7029.788624322937	0.428216229352
0	5414	7029.812794738886	0.024170415949
0	5415	7031.83431879683	2.021524057944
0	5416	7035.915750205732	4.081431408902
0	5426	7041.381873746823	5.466123541091
0	5427	7041.954301012962	0.572427266139
0	5431	7045.526962287678	3.572661274716
0	5432	7045.913447245335	0.386484957657
0	5433	7048.052363239725	2.13891599439
0	5443	7051.540690068018	3.488326828293
0	5444	7052.483612893121	0.942922825103
0	5451	7055.720895596554	3.237282703433
0	5452	7058.499398922119	2.778503325565
0	5453	7061.724395646612	3.224996724493
0	5454	7063.078072660371	1.353677013759
0	5458	7068.541747874744	5.463675214373
0	5468	7071.998762053871	3.457014179127
0	5469	7072.375087626884	0.376325573013
0	5479	7073.866378378804	1.49129075192
0	5483	7081.878233631897	8.011855253093
0	5484	7082.345002984721	0.466769352824
0	5494	7087.35319731259	5.008194327869
0	5503	7101.260820833028	13.907623520438
0	5508	7111.152528218416	9.891707385388
0	5510	7111.428243426837	0.275715208421
0	5512	7114.849299051065	3.421055624228
0	5514	7116.326320661661	1.477021610596
0	5521	7119.487219384184	3.160898722523
0	5523	7124.363924410291	4.876705026107
0	5526	7128.485827745166	4.121903334875
0	5528	7131.042277197078	2.556449451912
0	5532	7133.616425066091	2.574147869013
0	5534	7134.075210775791	0.4587857097
0	5536	7134.130045585481	0.05483480969
0	5539	7135.201324770129	1.071279184648
0	5541	7137.532249232118	2.330924461989
0	5543	7140.34752925611	2.815280023992
0	5544	7140.510569311349	0.163040055239
0	5552	7145.30977297055	4.799203659201
0	5556	7149.138139838885	3.828366868335
0	5558	7154.510017260152	5.371877421267
0	5560	7157.348482761443	2.838465501291
0	5564	7166.688210978617	9.339728217174
0	5569	7171.371985745009	4.683774766392
0	5571	7171.977321754025	0.605336009016
0	5575	7180.453709269628	8.476387515603
0	5579	7183.092896103615	2.639186833987
0	5584	7184.57883827083	1.485942167215
0	5587	7186.388284553687	1.809446282857
0	5589	7189.461105811155	3.072821257468
0	5594	7191.692279487311	2.231173676156
0	5598	7194.688777093225	2.996497605914
0	5600	7196.942999339693	2.254222246468
0	5605	7199.058074351037	2.115075011344
0	5608	7201.077170693408	2.019096342371
0	5610	7201.842290919907	0.765120226499
0	5616	7205.954471799048	4.112180879141
0	5622	7221.921217601424	15.966745802376
0	5624	7224.630642800004	2.70942519858
0	5626	7226.365062426531	1.734419626527
0	5629	7228.493198075213	2.128135648682
0	5631	7229.856976526506	1.363778451293
0	5634	7240.308555871118	10.451579344612
0	5636	7242.885915506166	2.577359635048
0	5639	7245.657760139217	2.771844633051
0	5641	7245.865109548973	0.207349409756
0	5644	7251.366637449849	5.501527900876
0	5648	7254.823313661229	3.45667621138
0	5650	7255.261981192174	0.438667530945
0	5653	7257.147486045707	1.885504853533
0	5655	7260.030661936391	2.883175890684
0	5658	7264.314106024283	4.283444087892
0	5660	7264.425293704315	0.111187680032
0	5664	7271.204456527617	6.779162823302
0	5667	7277.258121731307	6.05366520369
0	5670	7281.539831627359	4.281709896052
0	5675	7287.552266796053	6.012435168694
0	5679	7300.378483229266	12.826216433213
0	5683	7303.318955409095	2.940472179829
0	5685	7304.283944982852	0.964989573757
0	5689	7305.896170122019	1.612225139167
0	5691	7308.945095786836	3.048925664817
0	5693	7311.378457565172	2.433361778336
0	5695	7313.422414915253	2.043957350081
0	5697	7320.864074659123	7.44165974387
0	5702	7328.492240213628	7.628165554505
0	5704	7328.607126522961	0.114886309333
0	5707	7329.714180169209	1.107053646248
0	5709	7331.791934264773	2.077754095564
0	5713	7336.951220500054	5.159286235281
0	5715	7338.719864151955	1.768643651901
0	5717	7339.426436434913	0.706572282958
0	5719	7339.491399703179	0.064963268266
0	5720	7340.670332607654	1.178932904475
0	5721	7342.264736416227	1.594403808573
0	5722	7343.733573036732	1.468836620505
0	5723	7344.564808425453	0.831235388721
0	5727	7347.251303025755	2.686494600302
0	5728	7350.16308308601	2.911780060255
0	5732	7352.820010808124	2.656927722114
0	5742	7356.728300560546	3.908289752422
0	5746	7357.79337761501	1.065077054464
0	5747	7360.428486989328	2.635109374318
0	5763	7368.351526880491	7.923039891163
0	5767	7371.992743153876	3.641216273385
0	5772	7376.056108407411	4.063365253535
0	5775	7381.438230351793	5.382121944382
0	5779	7385.471909680451	4.033679328658
0	5781	7385.644636512464	0.172726832013
0	5783	7388.722683729042	3.078047216578
0	5784	7391.803577881491	3.080894152449
0	5791	7393.563701703239	1.760123821748
0	5795	7393.920170399805	0.356468696566
0	5796	7394.846881119858	0.926710720053
0	5797	7400.841667682787	5.994786562929
0	5808	7409.811402824085	8.969735141298
0	5810	7410.4785718698	0.667169045715
0	5811	7413.675566449293	3.196994579493
0	5812	7415.253678284337	1.578111835044
0	5813	7415.715184970944	0.461506686607
0	5814	7416.856380200007	1.141195229063
0	5824	7428.547060634851	11.690680434844
0	5825	7428.66179541557	0.114734780719
0	5829	7435.310500314125	6.648704898555
0	5830	7435.853968668019	0.543468353894
0	5831	7438.89206390238	3.038095234361
0	5835	7442.664401550423	3.772337648043
0	5856	7454.8586295851	12.194228034677
0	5861	7462.530327942217	7.671698357117
0	5865	7469.183628360616	6.653300418399
0	5867	7471.679823769513	2.496195408897
0	5869	7477.542959046633	5.86313527712
0	5872	7478.719736210837	1.176777164204
0	5874	7481.422111444939	2.702375234102
0	5876	7481.774249052061	0.352137607122
0	5879	7484.153291127924	2.379042075863
0	5881	7488.30617468612	4.152883558196
0	5882	7489.880070354941	1.573895668821
0	5886	7493.546382518895	3.666312163954
0	5887	7493.570040130886	0.023657611991
0	5888	7493.754196652571	0.184156521685
0	5889	7495.886642870372	2.132446217801
0	5896	7498.006735794115	2.120092923743
0	5897	7503.302464009765	5.29572821565
0	5898	7505.804194714598	2.501730704833
0	5899	7506.288698137944	0.484503423346
0	5903	7507.329441607047	1.040743469103
0	5904	7508.245972487613	0.916530880566
0	5905	7508.453734573914	0.207762086301
0	5921	7532.594150280015	24.140415706101
0	5928	7537.18740748013	4.593257200115
0	5935	7542.051611691324	4.864204211194
0	5939	7546.99284724501	4.941235553686
0	5940	7547.443714020337	0.450866775327
0	5941	7548.37011157088	0.926397550543
0	5948	7557.383429385581	9.013317814701
0	5949	7558.635655891819	1.252226506238
0	5950	7559.859162286765	1.223506394946
0	5954	7562.247029249131	2.387866962366
0	5955	7563.664087157442	1.417057908311
0	5978	7578.568066145842	14.9039789884
0	5980	7579.80763357808	1.239567432238
0	5981	7579.885108724475	0.077475146395
0	5982	7580.422427679068	0.537318954593
0	5993	7584.099806970801	3.677379291733
0	5996	7587.421411224987	3.321604254186
0	5998	7589.813350737438	2.391939512451
0	5999	7589.824038454379	0.010687716941
0	6003	7591.653795766152	1.829757311773
0	6011	7602.283000682144	10.629204915992
0	6013	7603.182903814787	0.899903132643
0	6020	7612.304953153601	9.122049338814
0	6022	7613.959681639124	1.654728485523
0	6026	7623.730964640973	9.771283001849
0	6028	7624.183246464116	0.452281823143
0	6030	7624.676654036362	0.493407572246
0	6034	7639.842536932076	15.165882895714
0	6036	7639.891960138929	0.049423206853
0	6039	7644.100875101948	4.208914963019
0	6041	7644.288126071921	0.187250969973
0	6042	7644.382113013997	0.093986942076
0	6050	7645.947971349381	1.565858335384
0	6052	7646.358345311599	0.410373962218
0	6053	7646.445126568015	0.086781256416
0	6054	7647.535610039715	1.0904834717
0	6055	7649.357611758451	1.822001718736
0	6056	7654.644997380616	5.287385622165
0	6060	7663.862079310405	9.217081929789
0	6061	7665.37228309088	1.510203780475
0	6062	7667.133366570565	1.761083479685
0	6075	7669.25687819181	2.123511621245
0	6076	7670.709820676696	1.452942484886
0	6077	7670.893112150075	0.183291473379
0	6084	7674.684692406477	3.791580256402
0	6085	7675.764609683578	1.079917277101
0	6086	7676.133386029723	0.368776346145
0	6090	7680.730732819901	4.597346790178
0	6091	7681.000248748894	0.269515928993
0	6092	7681.252413980552	0.252165231658
0	6096	7682.168098170862	0.91568419031
0	6103	7686.592624175629	4.424526004767
0	6116	7693.237981220774	6.645357045145
0	6126	7694.734139402042	1.496158181268
0	6127	7694.771388348055	0.037248946013
0	6131	7697.402589773134	2.631201425079
0	6138	7700.324167928946	2.921578155812
0	6139	7700.654622732917	0.330454803971
0	6140	7703.290794767129	2.636172034212
0	6141	7703.687958611686	0.397163844557
0	6145	7706.901505555493	3.213546943807
0	6146	7707.693687491907	0.792181936414
0	6153	7710.804780636825	3.111093144918
0	6166	7716.643553243027	5.838772606202
0	6173	7722.80712610835	6.163572865323
0	6174	7723.196156706342	0.389030597992
0	6175	7724.285966978685	1.089810272343
0	6185	7733.640692745449	9.354725766764
0	6186	7733.866316459863	0.225623714414
0	6193	7743.381301037136	9.514984577273
0	6200	7751.046893887634	7.665592850498
0	6205	7764.215227371156	13.168333483522
0	6208	7764.577063842343	0.361836471187
0	6210	7764.923246750772	0.346182908429
0	6211	7766.109855594704	1.186608843932
0	6212	7766.333317850757	0.223462256053
0	6213	7766.948011154286	0.614693303529
0	6214	7767.350059386431	0.402048232145
0	6230	7783.456801550194	16.106742163763
0	6234	7787.155847679447	3.699046129253
0	6235	7787.599991631251	0.444143951804
0	6236	7788.142960055975	0.542968424724
0	6237	7795.389780976456	7.246820920481
0	6238	7798.057096830754	2.667315854298
0	6254	7805.39110220163	7.334005370876
0	6258	7811.130871211861	5.739769010231
0	6263	7823.680828229181	12.54995701732
0	6267	7834.225112253995	10.544284024814
0	6272	7838.054816619429	3.829704365434
0	6274	7838.382359814826	0.327543195397
0	6276	7839.172716906757	0.790357091931
0	6279	7840.77404306987	1.601326163113
0	6281	7843.272646254135	2.498603184265
0	6284	7844.261679154189	0.989032900054
0	6288	7850.191728046858	5.930048892669
0	6291	7854.487077756509	4.295349709651
0	6293	7859.349390634792	4.862312878283
0	6296	7867.392586574111	8.043195939319
0	6298	7868.267645446841	0.87505887273
0	6303	7870.833405843507	2.565760396666
0	6307	7873.161279036407	2.3278731929
0	6309	7877.309732204009	4.148453167602
0	6311	7879.722241188771	2.412508984762
0	6312	7880.518614515176	0.796373326405
0	6322	7891.661579650202	11.142965135026
0	6328	7895.189380517058	3.527800866856
0	6330	7896.357878942275	1.168498425217
0	6333	7901.66302984016	5.305150897885
0	6335	7902.217912066716	0.554882226556
0	6338	7903.73806607351	1.520154006794
0	6343	7913.855820476865	10.117754403355
0	6345	7916.694606109358	2.838785632493
0	6349	7921.377373444573	4.682767335215
0	6351	7923.175721537044	1.798348092471
0	6354	7927.888677646301	4.712956109257
0	6357	7934.278261408328	6.389583762027
0	6360	7937.452757190223	3.174495781895
0	6363	7945.29151959491	7.838762404687
0	6365	7946.708813617381	1.417294022471
0	6367	7954.62506893913	7.916255321749
0	6374	7978.119165053182	23.494096114052
0	6376	7984.097124178927	5.977959125745
0	6380	7994.708841507615	10.611717328688
0	6382	7994.751816794612	0.042975286997
0	6384	7996.044604038738	1.292787244126
0	6386	8004.361549295323	8.316945256585
0	6389	8005.416506122554	1.054956827231
0	6394	8016.542746439626	11.126240317072
0	6396	8018.794535912528	2.251789472902
0	6398	8020.275168005151	1.480632092623
0	6402	8027.83548062841	7.560312623259
0	6408	8039.907647218936	12.072166590526
0	6410	8040.237081373616	0.32943415468
0	6412	8046.299758770184	6.062677396568
0	6414	8046.886755774635	0.586997004451
0	6416	8047.529353050173	0.642597275538
0	6419	8048.399703305862	0.870350255689
0	6422	8054.461826503653	6.062123197791
0	6426	8058.023532346448	3.561705842795
0	6429	8059.855532983201	1.832000636753
0	6432	8065.106866849324	5.251333866123
0	6436	8069.201890199826	4.095023350502
0	6440	8091.602264907787	22.400374707961
0	6442	8092.334343802299	0.732078894512
0	6444	8102.210527069902	9.876183267603
0	6446	8104.508736034959	2.298208965057
[...]
4	33337	40431.813801048336	0
4	33343	40436.619053348914	1
4	33346	40438.876952750956	7
4	33349	40439.838309120077	5
4	33352	40440.691148232587	9
4	33355	40441.45494681125	7
4	33356	40443.610246368288	8
4	33357	40448.266128500553	4
4	33358	40451.562490687408	3
4	33363	40457.491741683161	9
4	33364	40459.482353041916	3
4	33365	40465.023936912072	4
4	33370	40476.355091120585	5
4	33371	40476.86791467566	6
4	33376	40483.086847322974	6
4	33379	40491.010992416986	3
4	33386	40508.453530953752	4
4	33387	40511.485118860941	7
4	33388	40516.926229235967	0
4	33391	40521.69226982971	8
4	33394	40525.683785917284	1
4	33397	40532.243652694289	3
4	33398	40537.028341505873	5
4	33403	40543.404312395366	5
4	33404	40546.778621644946	0
4	33405	40548.80269573992	4
4	33418	40563.524362805299	3
4	33419	40564.380806237359	0
4	33420	40576.29751951741	5
4	33427	40588.61730576811	9
4	33428	40591.707753527314	8
4	33431	40592.046570427945	6
4	33438	40593.828011738453	1
4	33442	40595.434677879695	9
4	33445	40596.768031127813	6
4	33448	40597.133002916944	3
4	33451	40600.609430713223	2
4	33452	40606.456314782075	5
4	33453	40607.783685818374	8
4	33458	40618.245803422181	7
4	33459	40618.570273171634	6
4	33460	40620.005551789588	1
4	33461	40627.837356026011	0
4	33462	40629.980005971459	9
4	33463	40636.095966893308	2
4	33472	40648.560184294765	0
4	33477	40652.526373495454	6
4	33485	40662.866836770741	5
4	33489	40663.319524321558	9
4	33496	40675.319374007981	7
4	33500	40690.314700915679	8
4	33505	40696.190991713102	1
4	33508	40699.146533976202	6
4	33512	40709.86307073918	2
4	33515	40711.321040881298	1
4	33519	40716.385501420674	3
4	33526	40720.569679841915	2
4	33529	40720.608201478059	2
4	33532	40722.793475356113	4
4	33535	40724.196558307706	0
4	33539	40725.278678740141	3
4	33543	40728.74748150785	5
4	33546	40731.561894500338	1
4	33552	40736.790148879422	6
4	33555	40738.82059546299	1
4	33558	40738.866776888511	6
4	33563	40741.7572679942	3
4	33567	40744.014367611016	7
4	33574	40748.375973591785	0
4	33577	40748.818006786932	0
4	33580	40749.899799488288	2
4	33583	40753.455930991307	8
4	33586	40753.656556712367	7
4	33590	40757.971861792683	5
4	33593	40759.853349607048	7
4	33597	40761.072184826488	8
4	33600	40761.499194232362	3
4	33601	40763.009729690786	8
4	33602	40763.669242774193	5
4	33610	40769.516871965698	3
4	33613	40769.606908879607	9
4	33614	40770.943160405351	0
4	33620	40780.449233882634	4
4	33623	40783.640007247918	5
4	33628	40790.549997850355	7
4	33632	40792.931379145952	2
4	33635	40795.928756397263	7
4	33638	40799.344451146469	7
4	33639	40804.401094673097	5
4	33640	40804.736867314654	8
4	33641	40806.368570331472	4
4	33642	40806.973257733272	9
4	33649	40816.536579168834	0
4	33652	40824.36679056025	4
4	33653	40824.623500221647	0
4	33658	40826.934047670967	4
4	33661	40829.681709124773	6
4	33662	40830.998084771583	5
4	33663	40831.594146056084	7
4	33666	40833.771118160603	3
4	33667	40837.003232422633	5
4	33670	40849.727611358196	3
4	33673	40851.559685440609	1
4	33676	40852.71530342552	0
4	33685	40860.707331678737	4
4	33686	40862.381633387806	1
4	33689	40870.193342190358	1
4	33698	40874.673376739615	9
4	33702	40881.674465859794	3
4	33706	40883.919305605526	9
4	33709	40883.952358039475	9
4	33712	40886.619595822323	7
4	33715	40888.49508556785	2
4	33716	40889.672903600521	6
4	33717	40892.164793724595	5
4	33720	40893.725635789219	3
4	33721	40894.851435066834	4
4	33722	40894.985930838478	9
4	33727	40898.77306960703	8
4	33732	40902.498056697969	0
4	33737	40912.328024273456	5
4	33738	40913.420122611577	2
4	33739	40917.903628099021	7
4	33740	40919.32677490311	6
4	33747	40927.303317563523	6
4	33748	40928.786574401008	4
4	33751	40933.450200514501	3
4	33752	40937.488554479728	2
4	33753	40940.20118788734	5
4	33758	40946.999249415136	8
4	33759	40948.280451415414	4
4	33764	40958.210548653961	5
4	33773	40968.609939222976	4
4	33774	40973.733757962952	6
4	33775	40984.368310438815	8
4	33778	40984.957720986012	3
4	33779	40988.520082121357	5
4	33782	40989.794857092863	4
4	33787	40997.206314732467	2
4	33796	41012.325284171022	7
4	33797	41012.497095642351	5
4	33800	41018.001646736528	9
4	33803	41019.429520266099	3
4	33804	41021.460868876591	7
4	33805	41021.662114414035	5
4	33806	41021.674516563944	0
4	33809	41024.589560452892	1
4	33820	41033.572654679266	0
4	33823	41040.249566407474	7
4	33827	41041.964246667693	5
4	33830	41044.42601485691	3
4	33833	41047.446052967092	1
4	33834	41050.673265143223	7
4	33835	41051.244019714059	3
4	33836	41052.249091199047	6
4	33841	41058.472785253939	1
4	33844	41062.963302823931	3
4	33845	41064.022847589251	8
4	33855	41076.473350630247	6
4	33861	41079.014240050996	7
4	33865	41085.121622928147	6
4	33869	41088.542003774699	4
4	33874	41094.371445454382	9
4	33878	41095.878436800518	6
4	33881	41096.304084821945	2
4	33884	41096.5365286496	2
4	33887	41097.040519321741	6
4	33890	41097.860308840203	4
4	33891	41099.393374680172	5
4	33894	41102.288362717738	8
4	33897	41105.440903084784	1
4	33898	41106.784897514378	4
4	33905	41125.59171995364	9
4	33906	41128.943526869567	0
4	33909	41134.113194654127	2
4	33915	41138.343317194862	0
4	33918	41138.53614825868	5
4	33919	41139.524153111541	2
4	33924	41142.492334124592	8
4	33925	41145.043137304697	1
4	33926	41145.110192569296	0
4	33933	41156.621631769392	0
4	33936	41161.106058677075	8
4	33943	41172.505298956133	3
4	33946	41173.556626246234	0
4	33949	41174.232598130489	8
4	33952	41176.348279425878	5
4	33955	41176.8130087998	7
4	33956	41177.98775716974	3
4	33959	41184.358018744419	2
4	33962	41187.761886829023	3
4	33963	41194.397831164701	6
4	33964	41195.177945833729	1
4	33965	41195.830895723064	5
4	33966	41200.505775367111	0
4	33969	41202.192426269285	9
4	33976	41211.724725729352	1
4	33977	41212.138301733738	8
4	33978	41212.521110255557	5
4	33981	41213.628908372041	1
4	33982	41218.738887352918	3
4	33985	41225.973209028899	0
4	33986	41227.521211931276	1
4	33987	41229.881884136683	2
4	34002	41244.136695423941	5
4	34007	41246.452404553865	0
4	34010	41250.41600636279	6
4	34018	41255.51420521196	0
4	34021	41255.771848933151	1
4	34024	41256.216263777519	5
4	34030	41263.521627285577	1
4	34034	41274.425941053972	2
4	34039	41282.421671003378	8
4	34042	41285.173635752437	0
4	34045	41287.646552625391	9
4	34048	41294.867646666948	4
4	34051	41295.171673685483	1
4	34052	41306.759095809467	2
4	34053	41309.033959760907	0
4	34062	41323.426898553285	1
4	34067	41329.261796579162	5
4	34070	41329.304369811958	9
4	34073	41332.589173898377	9
4	34077	41334.975005600485	4
4	34082	41345.090350693631	0
4	34085	41346.120257959539	4
4	34088	41347.648743302876	1
4	34089	41349.497311901001	4
4	34090	41354.337764310504	0
4	34095	41358.47141879063	9
4	34098	41362.247642598345	5
4	34101	41363.764350643959	8
4	34102	41366.507186149161	2
4	34111	41375.256662868477	1
4	34114	41376.189559756053	1
4	34118	41379.395417227373	2
4	34121	41382.446922755501	5
4	34125	41393.77346751804	9
4	34128	41395.925502806253	1
4	34129	41397.615238179094	6
4	34132	41400.151633257402	3
4	34133	41402.022654814495	1
4	34136	41405.123485612305	0
4	34145	41411.247322946187	5
4	34148	41412.753400669469	9
4	34151	41414.846565610251	4
4	34155	41416.123910411336	6
4	34160	41426.542768106898	5
4	34163	41431.027247201851	7
4	34171	41441.639498661883	1
4	34174	41444.428639076433	6
4	34178	41447.272460051869	5
4	34182	41452.085360928085	6
4	34186	41456.810213373846	7
4	34192	41466.991964514251	6
4	34197	41470.634483899674	4
4	34202	41475.749657250331	7
4	34205	41477.378698758559	5
4	34209	41481.804423464879	3
4	34212	41481.834273269204	5
4	34216	41483.063653275304	7
4	34219	41488.338479430811	8
4	34222	41488.365588424206	1
4	34225	41495.475217352899	1
4	34228	41497.202751738894	5
4	34231	41498.34274490435	4
4	34235	41502.823376687457	7
4	34238	41504.745723260442	6
4	34239	41506.063396759191	4
4	34242	41506.706293973427	7
4	34243	41506.921954265086	5
4	34244	41517.315353052753	4
4	34245	41517.822670798499	1
4	34246	41518.74659070672	0
4	34247	41520.183381513294	3
4	34250	41520.678024701199	9
4	34259	41522.454296425843	3
4	34262	41524.65559653073	1
4	34267	41528.180802075017	5
4	34270	41529.907489871436	4
4	34279	41535.423957996045	5
4	34282	41540.417319481678	4
4	34286	41540.885746786968	6
4	34289	41544.757876695161	7
4	34290	41545.012443058103	1
4	34291	41546.0985026396	5
4	34296	41549.869149649913	8
4	34297	41552.447526579434	6
4	34302	41558.500277462236	1
4	34303	41562.472521135978	3
4	34306	41566.013759592277	2
4	34311	41567.13569268859	3
4	34314	41573.46481656583	3
4	34315	41573.609651930144	2
4	34316	41573.993688015673	4
4	34317	41574.090579215067	9
4	34320	41575.802331233073	6
4	34323	41577.363135212977	5
4	34330	41582.75793054289	3
4	34335	41588.584914839709	7
4	34341	41595.495087200035	9
4	34345	41598.310393944404	1
4	34348	41599.456196855331	7
4	34349	41601.035840226752	3
4	34354	41608.680119821791	3
4	34357	41611.869079937487	2
4	34358	41613.203411589692	6
4	34359	41613.560522980974	5
4	34360	41616.055383896266	9
4	34363	41622.449540050992	7
4	34364	41633.916405569131	4
4	34367	41635.1605417108	2
4	34368	41635.611142488705	1
4	34373	41650.834916710295	0
4	34376	41651.85827807531	3
4	34377	41652.730591273824	0
4	34378	41659.634315948017	8
4	34379	41664.295631826898	4
4	34386	41671.149213291859	1
4	34387	41680.924316016149	4
4	34392	41690.910378086449	2
4	34393	41692.137029101891	4
4	34404	41702.834268621362	0
4	34409	41707.173002081037	1
4	34414	41709.763046897332	7
4	34418	41715.328612451528	3
4	34422	41719.089446738516	4
4	34425	41719.281291360142	9
4	34429	41726.443868968703	1
4	34432	41727.338801057041	5
4	34433	41728.886186497678	8
4	34439	41732.188227774784	0
4	34442	41732.438761568641	7
4	34443	41733.433878284538	4
4	34444	41734.031269043194	5
4	34449	41750.718372709048	3
4	34452	41761.959804679901	4
4	34455	41765.359130733087	2
4	34458	41768.474850595123	5
4	34463	41773.615940046416	8
4	34466	41774.290326199814	2
4	34467	41776.788391278674	0
4	34470	41779.784809804137	7
4	34473	41780.468022670255	1
4	34474	41783.725406060412	3
4	34481	41790.17850277366	7
4	34482	41791.238192608581	1
4	34483	41793.538385324113	2
4	34486	41794.019809601448	6
4	34491	41794.598650311139	2
4	34494	41796.613305143755	0
4	34495	41805.476883241364	8
4	34498	41809.616198803751	9
4	34503	41830.009184795332	6
4	34506	41839.805229324046	5
4	34513	41848.624533794888	4
4	34516	41851.398919037697	8
4	34519	41853.145875226936	0
4	34525	41861.401069845239	7
4	34528	41862.144009767336	7
4	34531	41863.212351204083	0
4	34535	41867.32721822142	1
4	34538	41867.417646454159	9
4	34539	41868.193418513214	6
4	34542	41871.438293537597	3
4	34548	41877.969523300802	0
4	34551	41879.104463172764	4
4	34552	41881.672374937048	1
4	34553	41881.997709806187	6
4	34554	41882.149786538138	3
4	34555	41883.269989193395	2
4	34556	41885.7964910425	8
4	34563	41903.758038300352	2
4	34564	41905.670831722913	1
4	34565	41906.609997692531	3
4	34572	41910.98484672216	7
4	34575	41917.320236152464	5
4	34585	41930.686016231877	1
4	34588	41931.00037565923	1
4	34589	41931.218743151353	7
4	34590	41934.597742346554	6
4	34591	41934.961427904722	3
4	34596	41937.873100753192	9
4	34603	41941.886274076142	5
4	34604	41943.00215716796	8
4	34605	41945.362180028916	9
4	34610	41952.350252437739	5
4	34613	41953.707955430172	0
4	34616	41957.309953248929	2
4	34619	41960.73405193332	2
4	34620	41962.239759449495	4
4	34621	41963.19788484747	1
4	34622	41964.102097620508	8
4	34625	41973.105932371433	1
4	34626	41973.580193542544	0
4	34627	41979.947899002026	3
4	34628	41988.515589818124	7
4	34637	41997.702031680061	5
4	34640	42001.727381610638	2
4	34643	42004.264109574037	6
4	34646	42008.661552351104	3
4	34649	42014.093904405497	5
4	34661	42033.981629318661	0
4	34665	42038.768854429853	6
4	34668	42039.386354695528	8
4	34671	42042.201164333425	5
4	34672	42042.24271236107	0
4	34673	42042.421747251084	3
4	34674	42044.191408548427	2
4	34675	42047.565683766256	8
4	34676	42050.154736084448	4
4	34685	42056.042763134243	3
4	34686	42057.645642865611	1
4	34691	42068.252839193081	4
4	34694	42071.472894480622	9
4	34699	42076.488036705692	5
4	34702	42077.493467718705	5
4	34707	42080.905299904877	3
4	34708	42081.392150758443	2
4	34711	42090.533313606587	6
4	34712	42094.528813725123	9
4	34717	42099.006386840043	4
4	34723	42109.892137083427	4
4	34726	42110.804080304626	8
4	34727	42115.144006583714	7
4	34728	42115.360301124185	0
4	34731	42116.473384893454	5
4	34738	42129.36069870874	4
4	34739	42129.944962744657	0
4	34742	42131.656772929148	3
4	34747	42132.780570680964	0
4	34751	42143.317528231585	6
4	34755	42147.210683088866	1
4	34758	42147.211979554193	0
4	34759	42147.687433708242	2
4	34762	42151.765125762457	8
4	34763	42153.408565572414	9
4	34772	42163.186514189865	2
4	34775	42166.833409865773	3
4	34779	42172.926998026741	1
4	34788	42177.128245120898	2
4	34792	42181.421673174135	2
4	34798	42188.070513697062	0
4	34802	42189.888494064325	9
4	34805	42189.999277714652	2
4	34810	42195.195244977909	0
4	34813	42196.175283889214	1
4	34816	42197.162480097478	5
4	34819	42197.570519744092	2
4	34822	42197.902129675993	0
4	34825	42200.126665080857	6
4	34828	42200.355409673064	6
4	34833	42200.967280198955	3
4	34836	42201.991401986289	9
4	34840	42206.778602964719	7
4	34847	42214.048123410391	8
4	34851	42215.493207658523	4
4	34855	42219.458284180554	0
4	34859	42224.302750352567	8
4	34863	42228.971049392747	9
4	34866	42229.529495959797	0
4	34872	42237.473283942937	8
4	34876	42239.377219208415	5
4	34879	42244.567311648421	8
4	34883	42245.749293874565	9
4	34886	42247.450287671216	0
4	34889	42247.944989871727	9
4	34896	42255.54322929922	3
4	34901	42265.46565231708	7
4	34905	42270.40411205451	2
4	34908	42270.457205182087	4
4	34912	42276.447508695287	1
4	34918	42288.725572207659	2
4	34921	42291.432429919219	6
4	34924	42291.85984038965	1
4	34928	42297.863158571363	6
4	34931	42298.062551456765	4
4	34935	42299.075291573305	8
4	34939	42300.61889545755	9
4	34942	42302.548130278934	4
4	34945	42302.964097797533	4
4	34948	42306.605514136398	2
4	34954	42313.356339885224	4
4	34957	42315.759926333731	3
4	34962	42319.245081317818	1
4	34966	42320.384568069094	8
4	34969	42321.438232181556	5
4	34974	42324.13485580877	0
4	34978	42326.229995276799	7
4	34982	42326.876646151183	5
4	34985	42328.19070948045	1
4	34989	42329.358267856189	8
4	34993	42335.282334784081	9
4	34997	42342.267543190778	2
4	35001	42343.942889959854	6
4	35004	42344.813915952229	8
4	35007	42350.479154855565	9
4	35010	42354.138739300259	1
4	35013	42359.439122561669	7
4	35014	42359.587955369681	3
4	35015	42362.603476072609	0
4	35018	42363.309482966175	4
4	35023	42367.239112794807	2
4	35024	42367.699478024036	6
4	35025	42367.724748137032	9
4	35026	42367.892051251809	0
4	35027	42369.675860151249	1
4	35030	42374.107733774608	0
4	35033	42376.903794455424	4
4	35036	42382.352882182765	8
4	35039	42384.082420976198	0
4	35040	42385.628279434073	2
4	35041	42395.378348307524	3
4	35048	42412.723273006969	1
4	35049	42413.403168782642	2
4	35054	42417.037751454024	1
4	35055	42417.78680867219	5
4	35062	42438.330654990851	5
4	35063	42439.068447321901	0
4	35068	42442.78897570349	4
4	35071	42448.954749647552	1
4	35072	42450.06443978413	5
4	35077	42455.123685838293	0
4	35078	42461.172149398749	5
4	35081	42466.522217623955	4
4	35088	42478.833922774434	2
4	35089	42481.301697884811	6
4	35098	42486.034340118049	1
4	35099	42494.534750679712	6
4	35104	42502.668179996976	5
4	35105	42503.038196334951	8
4	35106	42508.634405598335	1
4	35109	42511.027999494648	4
4	35110	42512.678142262971	1
4	35115	42517.288633780874	0
4	35116	42519.222803522674	3
4	35119	42524.022385584687	4
4	35128	42535.516142129684	2
4	35129	42536.00031309147	6
4	35130	42536.096620421208	0
4	35141	42556.705999402623	3
4	35144	42557.892120646235	5
4	35148	42559.005787736996	9
4	35152	42563.225634951822	9
4	35155	42564.448870376776	8
4	35156	42565.839077494303	7
4	35161	42569.501844057243	3
4	35162	42572.312868628029	0
4	35163	42572.454905746591	7
4	35164	42577.551082026173	6
4	35165	42579.200143481177	9
4	35170	42587.536010142937	5
4	35175	42600.169870345499	6
4	35180	42602.368820029053	0
4	35181	42604.400489093711	6
4	35182	42605.907219327585	3
4	35185	42609.506767513525	1
4	35188	42610.493351462857	4
4	35189	42610.833312959641	7
4	35194	42615.897126733519	0
4	35199	42629.569820007604	6
4	35200	42629.656343440729	3
4	35201	42632.688852090958	0
4	35204	42635.250627712816	5
4	35207	42647.422877466168	2
4	35208	42650.287806515406	8
4	35211	42650.549541589015	3
4	35220	42675.143485607864	3
4	35223	42677.024475740142	1
4	35226	42678.374548376462	6
4	35229	42686.8550400033	4
4	35234	42692.067727538377	8
4	35237	42697.219973855164	4
4	35238	42697.670018319543	6
4	35241	42699.504898465952	7
4	35246	42706.892549073736	7
4	35249	42710.315346263149	2
4	35257	42727.113880864278	3
4	35262	42732.844989911004	6
4	35265	42738.441440557558	8
4	35268	42738.540365884417	3
4	35272	42741.39066286768	2
4	35275	42745.111564196121	4
4	35278	42745.640692924697	6
4	35281	42747.881766257836	3
4	35282	42749.435707695893	1
4	35283	42754.326624100578	5
4	35290	42768.933685095569	2
4	35291	42770.269991507031	7
4	35292	42770.467524206355	4
4	35297	42775.053134791776	1
4	35300	42781.01588271271	0
4	35301	42781.024070767007	3
4	35302	42781.647573376298	6
4	35305	42782.827951846072	0
4	35310	42791.717042405279	9
4	35320	42810.056043482442	9
4	35323	42810.097313152425	9
4	35326	42810.245537338734	3
4	35329	42818.387719803739	8
4	35330	42819.62543339973	2
4	35331	42819.867945655124	0
4	35332	42820.115767377264	5
4	35333	42820.590500293231	7
4	35336	42822.86001301077	9
4	35339	42828.018832641352	3
4	35340	42828.60001085912	1
4	35345	42834.390265401706	2
4	35348	42838.707858082887	4
4	35353	42842.360942489169	2
4	35356	42845.549128673659	5
4	35359	42848.822135145465	1
4	35360	42854.319706428669	6
4	35361	42855.002979348034	2
4	35370	42866.058023752092	5
4	35377	42875.566316645241	8
4	35378	42876.260463433926	7
4	35379	42880.785826376173	9
4	35382	42885.025486701385	4
4	35383	42886.973438071548	1
4	35392	42897.897150983558	5
4	35399	42904.361873266838	2
4	35402	42905.07515986566	1
4	35406	42907.375829561547	3
4	35410	42913.308762603756	7
4	35415	42920.255468243102	2
4	35418	42925.419598297028	5
4	35423	42933.14447444175	0
4	35426	42933.263641359299	2
4	35429	42933.445302966019	9
4	35432	42933.633666980489	4
4	35435	42939.637219540088	7
4	35436	42939.841590016552	9
4	35437	42941.966641226873	4
4	35442	42952.348176113399	8
4	35447	42960.879662304019	2
4	35450	42968.42139508028	4
4	35453	42971.005077822678	7
4	35456	42971.47395528604	9
4	35457	42972.820056301121	4
4	35458	42973.0034901278	0
4	35465	42980.900046183983	9
4	35466	42983.846345209114	0
4	35467	42984.212678524352	3
4	35470	42985.381669575889	1
4	35477	42990.926446960687	4
4	35478	42991.570549670496	3
4	35479	42992.187438571922	8
4	35480	42993.448194846079	1
4	35489	43000.785707465743	4
4	35490	43000.813566123852	0
4	35491	43005.681657890816	9
4	35492	43005.852375131194	3
4	35493	43011.127199762203	1
4	35494	43013.724905928366	2
4	35495	43014.596079640399	6
4	35506	43033.672096041489	8
4	35511	43035.998819098938	1
4	35512	43036.13791535546	3
4	35513	43047.845956750545	7
4	35516	43052.275377888255	8
4	35519	43054.093976086882	6
4	35520	43058.609361119503	4
4	35521	43062.038223417539	2
4	35530	43073.609418274727	3
4	35538	43102.044204974297	9
4	35541	43104.593365789029	1
4	35542	43104.747730076304	9
4	35547	43111.335529544725	8
4	35555	43121.798425487997	8
4	35559	43129.396306476679	2
4	35563	43130.780555699257	4
4	35566	43131.053539035505	1
4	35569	43131.825700012032	5
4	35573	43134.69596437101	4
4	35577	43136.191887189588	3
4	35580	43141.579013631754	5
4	35583	43143.398683388416	7
4	35586	43149.216323326245	3
4	35589	43154.102993683881	2
4	35592	43156.443532935875	3
4	35595	43162.223425494645	2
4	35596	43165.219385423754	7
4	35597	43168.407733134149	9
4	35598	43168.945482775287	8
4	35603	43173.364166506514	0
4	35608	43176.845545283956	3
4	35611	43182.533575184345	6
4	35614	43185.499928885265	4
4	35615	43185.534079589753	0
4	35616	43185.774168508908	3
4	35623	43191.37929967013	4

