version 2
run General-7-20180202-18:51:50-9252
attr configname General
attr datetime 20180202-18:51:50
attr experiment General
attr inifile carrefour.ini
attr iterationvars $0=30
attr iterationvarsf 30-
attr measurement $0=30
attr network Carrefour
attr processid 9252
attr repetition 1
attr replication #1
attr resultdir results
attr runnumber 7
attr seedset 7
param **.lambda 30
param **.numeroCasse 10
param **.mu 30
param **.tipoSimulazione 0
param **.delay 0
param **.ServiceType 0

vector 0 Carrefour.coda 1_Lambda:vector ETV
attr source Interarrivals
attr title "1/lambda, vector"
vector 1 Carrefour.coda E_Nq:vector ETV
attr source QueueLenght
attr title "E[Nq], vector"
vector 2 Carrefour.coda E_W:vector ETV
attr source Queuing
attr title "E[W], vector"
vector 3 Carrefour.decisore E_R:vector ETV
attr source TotalTime
attr title "E[R], vector"
vector 4 Carrefour.decisore ActiveTillStat:vector ETV
attr source ActiveTill
attr title "Active Till, vector"
0	1	7	7
0	4	149.170588950222	142.17058895022
0	7	210.225161634168	61.054572683946
0	9	279.86856583169	69.643404197522
0	13	349.993181250447	70.124615418757
0	16	413.553473062973	63.560291812526
0	19	519.578962154921	106.02548909195
0	22	586.315094712898	66.736132557977
0	25	626.663514568713	40.348419855815
0	28	703.837438713502	77.173924144789
0	30	724.164667678131	20.327228964629
0	32	728.036418191128	3.871750512997
0	34	740.552609641325	12.516191450197
0	37	762.689062142805	22.13645250148
0	43	873.55450728653	110.86544514372
0	45	879.844923377066	6.290416090536
0	48	890.701137385479	10.856214008413
0	52	908.226881329322	17.525743943843
0	54	924.994321640333	16.767440311011
0	56	932.363770842074	7.369449201741
0	58	956.681606163132	24.317835321058
0	63	1016.297343287785	59.615737124653
0	67	1072.218421676492	55.921078388707
0	70	1090.659584548415	18.441162871923
0	73	1113.792092200894	23.132507652479
0	76	1158.630000217677	44.837908016783
0	78	1175.899934613347	17.26993439567
0	82	1216.798935843573	40.899001230226
0	84	1221.190185085888	4.391249242315
0	88	1448.954005246379	227.76382016049
0	90	1468.293978125073	19.339972878694
0	93	1491.823199067687	23.529220942614
0	95	1496.551031781875	4.727832714188
0	100	1538.000330661369	41.449298879494
0	102	1550.248813198642	12.248482537273
0	105	1622.492182428408	72.243369229766
0	108	1630.84460247016	8.352420041752
0	112	1664.273676219001	33.429073748841
0	115	1718.800042394705	54.526366175704
0	118	1728.139990355685	9.33994796098
0	121	1778.752703991766	50.612713636081
0	123	1787.183128231193	8.430424239427
0	125	1787.339748351408	0.156620120215
0	129	1816.175567476048	28.83581912464
0	132	1834.210001886798	18.03443441075
0	136	1854.349306941882	20.139305055084
0	139	1878.312976304027	23.963669362145
0	142	1901.943154591378	23.630178287351
0	144	1904.453399273355	2.510244681977
0	147	1924.80546195955	20.352062686195
0	151	1953.914554846484	29.109092886934
0	154	1975.986758807189	22.072203960705
0	156	1981.779547222226	5.792788415037
0	158	1993.932844659983	12.153297437757
0	161	1999.439348833619	5.506504173636
0	165	2074.015030670498	74.575681836879
0	168	2090.284193794235	16.269163123737
0	172	2145.614613903904	55.330420109669
0	175	2192.086634364306	46.472020460402
0	178	2233.090370480457	41.003736116151
0	180	2243.779795635014	10.689425154557
0	182	2265.326454362918	21.546658727904
0	187	2295.78861524921	30.462160886292
0	190	2315.154866715164	19.366251465954
0	192	2335.355235004905	20.200368289741
0	196	2385.075591200539	49.720356195634
0	198	2385.926502463348	0.850911262809
0	201	2418.767031317402	32.840528854054
0	205	2451.533925176849	32.766893859447
0	208	2505.66785037946	54.133925202611
0	211	2547.7798552175	42.11200483804
0	213	2568.039236909402	20.259381691902
0	217	2661.327441475975	93.288204566573
0	219	2666.128682780409	4.801241304434
0	223	2728.467385757513	62.338702977104
0	225	2731.04906192976	2.581676172247
0	229	2783.959492583761	52.910430654001
0	232	2807.697197638342	23.737705054581
0	235	2833.242353891995	25.545156253653
0	238	2864.360893523327	31.118539631332
0	241	2887.838189835939	23.477296312612
0	244	2983.871454586908	96.033264750969
0	246	2991.777101189163	7.905646602255
0	248	2992.170818483119	0.393717293956
0	252	3011.478112205675	19.307293722556
0	256	3062.745230611134	51.267118405459
0	259	3169.335270941567	106.59004033043
0	261	3186.525908050294	17.190637108727
0	265	3207.381918948811	20.856010898517
0	267	3216.805642470869	9.423723522058
0	271	3271.15116011918	54.345517648311
0	274	3308.281164530478	37.130004411298
0	276	3316.721691278945	8.440526748467
0	280	3376.564066429631	59.842375150686
0	282	3376.94528087985	0.381214450219
0	285	3406.823630442085	29.878349562235
0	289	3552.880911306362	146.05728086428
0	292	3592.739621448544	39.858710142182
0	294	3594.624623949306	1.885002500762
0	297	3605.707575368594	11.082951419288
0	299	3607.219761665558	1.512186296964
0	302	3625.624316881694	18.404555216136
0	307	3656.76139739156	31.137080509866
0	309	3677.145424485109	20.384027093549
0	312	3702.328506803981	25.183082318872
0	315	3740.445104610216	38.116597806235
0	319	3784.246103744672	43.800999134456
0	321	3794.209449673789	9.963345929117
0	323	3794.496089163075	0.286639489286
0	325	3794.52454118396	0.028452020885
0	329	3852.713797544911	58.189256360951
0	334	3883.357532704745	30.643735159834
0	336	3890.501385835996	7.143853131251
0	338	3895.796837884993	5.295452048997
0	343	3937.361597505692	41.564759620699
0	346	3951.770150797421	14.408553291729
0	349	4018.562671000502	66.792520203081
0	352	4116.959783929018	98.397112928516
0	355	4171.139796542031	54.180012613013
0	358	4268.981726365398	97.841929823367
0	361	4292.692881863396	23.711155497998
0	364	4303.665609029753	10.972727166357
0	366	4308.615190474334	4.949581444581
0	370	4328.912644626581	20.297454152247
0	373	4345.408269608847	16.495624982266
0	375	4349.648276263456	4.240006654609
0	377	4349.967610536427	0.319334272971
0	379	4357.380724930736	7.413114394309
0	382	4390.372268395813	32.991543465077
0	387	4405.758714937099	15.386446541286
0	389	4406.364472457823	0.605757520724
0	391	4434.212924584682	27.848452126859
0	397	4462.686502196947	28.473577612265
0	399	4507.003666314492	44.317164117545
0	401	4520.905417700163	13.901751385671
0	404	4523.652282705535	2.746865005372
0	407	4543.951339517626	20.299056812091
0	412	4617.099368697596	73.14802917997
0	415	4629.322420171054	12.223051473458
0	417	4632.262049124937	2.939628953883
0	421	4741.904826157616	109.64277703268
0	424	4788.096021424005	46.191195266389
0	427	4894.827776963324	106.73175553932
0	430	4922.815231881482	27.987454918158
0	432	4940.511799356393	17.696567474911
0	435	4965.7857831904	25.273983834007
0	437	5003.343502298602	37.557719108202
0	442	5045.813949317802	42.4704470192
0	444	5074.021892918642	28.20794360084
0	447	5122.683065306493	48.661172387851
0	450	5142.897757210508	20.214691904015
0	453	5158.288002777797	15.390245567289
0	455	5163.532904246823	5.244901469026
0	460	5251.606101415764	88.073197168941
0	462	5261.467678088847	9.861576673083
0	465	5285.142293648193	23.674615559346
0	469	5287.592937398545	2.450643750352
0	471	5295.207598523677	7.614661125132
0	475	5374.764596052711	79.556997529034
0	478	5393.806660323239	19.042064270528
0	481	5414.303487083842	20.496826760603
0	483	5434.769518368948	20.466031285106
0	487	5499.309816298556	64.540297929608
0	490	5540.993437635444	41.683621336888
0	493	5663.593842612596	122.60040497715
0	495	5685.453963114651	21.860120502055
0	499	5765.334221522274	79.880258407623
0	502	5803.604689573788	38.270468051514
0	505	5872.690992642199	69.086303068411
0	508	5890.031238607596	17.340245965397
0	510	5901.939379491597	11.908140884001
0	514	5941.003896316999	39.064516825402
0	516	5963.561909182541	22.558012865542
0	518	5977.268936433364	13.707027250823
0	521	5999.363578366609	22.094641933245
0	525	6023.211474006514	23.847895639905
0	529	6137.346267341254	114.13479333474
0	531	6139.221425397765	1.875158056511
0	533	6148.953305632195	9.73188023443
0	537	6173.02108848647	24.067782854275
0	541	6228.31466792189	55.29357943542
0	544	6243.518027583843	15.203359661953
0	547	6260.557080057179	17.039052473336
0	549	6296.185817993146	35.628737935967
0	552	6332.833786823211	36.647968830065
0	556	6358.09901523961	25.265228416399
0	558	6384.535002458184	26.435987218574
0	562	6423.120747147465	38.585744689281
0	565	6464.669474452742	41.548727305277
0	568	6509.809961956928	45.140487504186
0	571	6517.652809873353	7.842847916425
0	574	6594.892394482676	77.239584609323
0	577	6611.372300100075	16.479905617399
0	580	6642.717809080288	31.345508980213
0	583	6663.351513172182	20.633704091894
0	585	6676.330948312351	12.979435140169
0	587	6696.650632301018	20.319683988667
0	590	6714.588726160362	17.938093859344
0	595	6733.090430043978	18.501703883616
0	597	6743.306948112402	10.216518068424
0	601	6787.223437366267	43.916489253865
0	603	6791.112999108406	3.889561742139
0	605	6809.31264306751	18.199643959104
0	607	6812.137179388754	2.824536321244
0	609	6813.558437898647	1.421258509893
0	611	6814.753267204391	1.194829305744
0	619	6881.836422301265	67.083155096874
0	622	6893.78036202729	11.943939726025
0	624	6910.124232525076	16.343870497786
0	628	6975.30722408423	65.182991559154
0	630	6982.844226043736	7.537001959506
0	634	7079.238575451517	96.394349407781
0	637	7106.27877907498	27.040203623463
0	640	7120.483961248955	14.205182173975
0	642	7122.970902298266	2.486941049311
0	645	7123.262256792949	0.291354494683
0	647	7150.580719042805	27.318462249856
0	652	7194.865989646994	44.285270604189
0	654	7195.551071217523	0.685081570529
0	657	7228.168625953526	32.617554736003
0	661	7276.702192371475	48.533566417949
0	663	7301.506793313399	24.804600941924
0	665	7320.242286994341	18.735493680942
0	669	7339.606179553788	19.363892559447
0	673	7387.347810580602	47.741631026814
0	675	7400.985421045226	13.637610464624
0	679	7513.700042566037	112.71462152081
0	681	7521.543191163017	7.84314859698
0	683	7533.023813174654	11.480622011637
0	685	7551.481161783531	18.457348608877
0	688	7580.922797019071	29.44163523554
0	692	7594.276062032769	13.353265013698
0	695	7618.627741130635	24.351679097866
0	699	7623.638653035796	5.010911905161
0	702	7637.264101239768	13.625448203972
0	706	7794.533523591171	157.2694223514
0	709	7806.463842665229	11.930319074058
0	711	7810.129767882404	3.665925217175
0	714	7819.00834814961	8.878580267206
0	718	7889.453590682943	70.445242533333
0	721	7904.938442874124	15.484852191181
0	723	7920.272549253269	15.334106379145
0	726	7945.136596532794	24.864047279525
0	729	7960.733700202843	15.597103670049
0	731	7964.542674675553	3.80897447271
0	734	7991.409249171416	26.866574495863
0	739	8038.274066623597	46.864817452181
0	741	8064.666710772277	26.39264414868
0	744	8100.185973643295	35.519262871018
0	747	8105.524582466987	5.338608823692
0	751	8262.523847602974	156.99926513599
0	753	8276.232629079314	13.70878147634
0	756	8323.623269872993	47.390640793679
0	759	8387.345931218462	63.722661345469
0	761	8394.736297847889	7.390366629427
0	766	8418.434818117183	23.698520269294
0	769	8464.317027800013	45.88220968283
0	771	8466.037702191056	1.720674391043
0	774	8481.987703709647	15.950001518591
0	777	8501.274646009196	19.286942299549
0	781	8532.033687730225	30.759041721029
0	783	8534.701352703539	2.667664973314
0	786	8552.661916798888	17.960564095349
0	790	8598.024930897715	45.363014098827
0	792	8609.069910839955	11.04497994224
0	795	8619.346403314449	10.276492474494
0	799	8642.984043273285	23.637639958836
0	801	8667.472969923846	24.488926650561
0	803	8667.993686472042	0.520716548196
0	808	8732.374977127086	64.381290655044
0	811	8811.639853511244	79.264876384158
0	813	8820.845740258592	9.205886747348
0	816	8856.88473985142	36.038999592828
0	819	8898.491991799847	41.607251948427
0	821	8904.191868847747	5.6998770479
0	825	8908.385266231094	4.193397383347
0	827	8911.693484528504	3.30821829741
0	832	8938.853840371397	27.160355842893
0	834	8955.899590073563	17.045749702166
0	838	8986.872821900563	30.973231827
0	841	9002.001284515068	15.128462614505
0	843	9007.553215120524	5.551930605456
0	847	9102.761768917135	95.208553796611
0	849	9106.204375522466	3.442606605331
0	852	9110.978901639074	4.774526116608
0	856	9194.085405721175	83.106504082101
0	859	9298.712744948154	104.62733922698
0	862	9374.977103618162	76.264358670008
0	865	9457.79383169177	82.816728073608
0	867	9469.050773886335	11.256942194565
0	871	9480.029351226978	10.978577340643
0	873	9487.685086469889	7.655735242911
0	876	9523.666493991833	35.981407521944
0	878	9539.492546231319	15.826052239486
0	882	9551.178557744647	11.686011513328
0	885	9604.361931851795	53.183374107148
0	889	9623.531474585877	19.169542734082
0	891	9626.017707639257	2.48623305338
0	895	9652.211449411187	26.19374177193
0	898	9699.358712663055	47.147263251868
0	900	9725.590879219017	26.232166555962
0	902	9740.578507393346	14.987628174329
0	904	9748.104909252776	7.52640185943
0	906	9751.41317354239	3.308264289614
0	913	9785.394595764219	33.981422221829
0	915	9799.413720664666	14.019124900447
0	919	9894.124286440029	94.710565775363
0	922	9968.026829993575	73.902543553546
0	925	10041.493480551934	73.466650558359
0	927	10057.372355988405	15.878875436471
0	931	10081.078550802581	23.706194814176
0	934	10097.362774296571	16.28422349399
0	936	10097.734432222571	0.371657926
0	938	10111.166937410112	13.432505187541
0	940	10118.486355941942	7.31941853183
0	945	10136.805856077931	18.319500135989
0	947	10150.658432033455	13.852575955524
0	950	10189.409087471006	38.750655437551
0	952	10197.487565047707	8.078477576701
0	956	10216.863632974766	19.376067927059
0	959	10228.263418335344	11.399785360578
0	961	10239.015561298331	10.752142962987
0	964	10262.250775722033	23.235214423702
0	966	10267.200251277466	4.949475555433
0	972	10285.153693700423	17.953442422957
0	976	10324.900773150461	39.747079450038
0	978	10370.532406847654	45.631633697193
0	982	10437.211390638637	66.678983790983
0	985	10521.531120620891	84.319729982254
0	987	10524.294865747406	2.763745126515
0	989	10524.934554900975	0.639689153569
0	994	10589.06808526575	64.133530364775
0	997	10705.785050911151	116.7169656454
0	1000	10731.049534507488	25.264483596337
0	1003	10741.658812599594	10.609278092106
0	1005	10742.310712963549	0.651900363955
0	1007	10745.264742335654	2.954029372105
0	1010	10776.622094603105	31.357352267451
0	1013	10804.138973936898	27.516879333793
0	1015	10806.205372449213	2.066398512315
0	1017	10807.472426489565	1.267054040352
0	1024	10871.542543785854	64.070117296289
0	1027	10883.263352308449	11.720808522595
0	1029	10885.625714465345	2.362362156896
0	1031	10893.382104355692	7.756389890347
0	1036	10929.995405182275	36.613300826583
0	1039	10986.185533987804	56.190128805529
0	1041	11001.205794140441	15.020260152637
0	1044	11008.136363816289	6.930569675848
0	1046	11013.196607860572	5.060244044283
0	1049	11017.985646825608	4.789038965036
0	1051	11022.248454380717	4.262807555109
0	1056	11043.008450809983	20.759996429266
0	1058	11048.221399482333	5.21294867235
0	1063	11119.584799757647	71.363400275314
0	1066	11141.519658040196	21.934858282549
0	1069	11157.58572089274	16.066062852544
0	1071	11166.634918040543	9.049197147803
0	1074	11192.347199075895	25.712281035352
0	1076	11193.381358804962	1.034159729067
0	1080	11208.974212742581	15.592853937619
0	1083	11254.489653654055	45.515440911474
0	1087	11318.609248376124	64.119594722069
0	1090	11336.798519956711	18.189271580587
0	1092	11347.362514162126	10.563994205415
0	1094	11362.471951770824	15.109437608698
0	1097	11452.280380653451	89.808428882627
0	1099	11453.130028644657	0.849647991206
0	1101	11460.384603959354	7.254575314697
0	1105	11511.037204343234	50.65260038388
0	1109	11522.524054812372	11.486850469138
0	1114	11570.94640527836	48.422350465988
0	1117	11589.301880971351	18.355475692991
0	1119	11616.328121555917	27.026240584566
0	1123	11746.237713274951	129.90959171903
0	1126	11768.402722046717	22.165008771766
0	1129	11811.943183486599	43.540461439882
0	1131	11866.764652681383	54.821469194784
0	1134	11883.530885889615	16.766233208232
0	1138	11907.686898950152	24.156013060537
0	1140	11934.443936693614	26.757037743462
0	1144	11948.264310947499	13.820374253885
0	1146	11981.62794563514	33.363634687641
0	1150	12009.331242468066	27.703296832926
0	1153	12074.422846244552	65.091603776486
0	1155	12084.960438179074	10.537591934522
0	1158	12109.602763001423	24.642324822349
0	1162	12203.026699278337	93.423936276914
0	1165	12286.466327448941	83.439628170604
0	1168	12355.908668639467	69.442341190526
0	1170	12364.033668200781	8.124999561314
0	1173	12384.359875867763	20.326207666982
0	1175	12390.714598495786	6.354722628023
0	1177	12409.834646559838	19.120048064052
0	1183	12491.222575640387	81.387929080549
0	1185	12507.197209629592	15.974633989205
0	1189	12528.425085946286	21.227876316694
0	1191	12537.225762343237	8.800676396951
0	1195	12564.822407866607	27.59664552337
0	1197	12570.88417835376	6.061770487153
0	1201	12612.664974761808	41.780796408048
0	1203	12613.207512527888	0.54253776608
0	1206	12675.612868829051	62.405356301163
0	1210	12748.083340195054	72.470471366003
0	1213	12814.097732136209	66.014391941155
0	1216	12911.707185056671	97.609452920462
0	1219	12945.420355911235	33.713170854564
0	1221	12961.213993653252	15.793637742017
0	1224	12963.121222932316	1.907229279064
0	1228	13038.755554493768	75.634331561452
0	1230	13044.140120935547	5.384566441779
0	1234	13068.0290871883	23.888966252753
0	1236	13079.044535429018	11.015448240718
0	1239	13177.304636839634	98.260101410616
0	1243	13264.243252703877	86.938615864243
0	1246	13282.818886812299	18.575634108422
0	1248	13308.707861859068	25.888975046769
0	1250	13313.426979680411	4.719117821343
0	1254	13317.321048865802	3.894069185391
0	1258	13344.752107275013	27.431058409211
0	1261	13357.044109933321	12.292002658308
0	1264	13417.074295014296	60.030185080975
0	1267	13523.28815232786	106.21385731356
0	1269	13541.662676360396	18.374524032536
0	1273	13586.275520854856	44.61284449446
0	1276	13627.715802658508	41.440281803652
0	1278	13636.284486319603	8.568683661095
0	1281	13725.403655489775	89.119169170172
0	1284	13740.78000690906	15.376351419285
0	1287	13748.725991157551	7.945984248491
0	1291	13794.956497660492	46.230506502941
0	1294	13863.113577220813	68.157079560321
0	1297	13911.904404332275	48.790827111462
0	1300	13956.54684455089	44.642440218615
0	1302	14005.866983312422	49.320138761532
0	1306	14099.723584043427	93.856600731005
0	1309	14110.291242069534	10.567658026107
0	1311	14130.248717516755	19.957475447221
0	1313	14132.691692450787	2.442974934032
0	1315	14134.403123721516	1.711431270729
0	1319	14155.41986825601	21.016744534494
0	1324	14176.665261817277	21.245393561267
0	1326	14194.903772568573	18.238510751296
0	1329	14218.25491622964	23.351143661067
0	1333	14308.146963689048	89.892047459408
0	1336	14431.689601743001	123.54263805395
0	1339	14486.332406518162	54.642804775161
0	1342	14492.011531173469	5.679124655307
0	1344	14515.215307617207	23.203776443738
0	1346	14523.031472404004	7.816164786797
0	1350	14546.201105826865	23.169633422861
0	1352	14574.373818714434	28.172712887569
0	1356	14600.321559503946	25.947740789512
0	1358	14609.608378978527	9.286819474581
0	1361	14616.133899043093	6.525520064566
0	1366	14717.245882295784	101.11198325269
0	1368	14732.234656006572	14.988773710788
0	1371	14745.664532500545	13.429876493973
0	1374	14752.910016037816	7.245483537271
0	1378	14797.534316611709	44.624300573893
0	1381	14836.473026127522	38.938709515813
0	1384	14880.27788084969	43.804854722168
0	1386	14887.524230012919	7.246349163229
0	1388	14890.277274877536	2.753044864617
0	1391	14912.698379220854	22.421104343318
0	1394	14924.520168665211	11.821789444357
0	1399	14983.080513406282	58.560344741071
0	1402	15018.091613079917	35.011099673635
0	1404	15039.449444935291	21.357831855374
0	1406	15066.557866882385	27.108421947094
0	1411	15130.030043785545	63.47217690316
0	1413	15151.837764864042	21.807721078497
0	1417	15212.749855022762	60.91209015872
0	1420	15240.304047002287	27.554191979525
0	1423	15263.984267471787	23.6802204695
0	1425	15266.147814209392	2.163546737605
0	1428	15284.894484766925	18.746670557533
0	1432	15314.264161066094	29.369676299169
0	1435	15361.696680852637	47.432519786543
0	1437	15372.498471073052	10.801790220415
0	1440	15425.801289116007	53.302818042955
0	1444	15526.239022199966	100.43773308396
0	1446	15531.199875116945	4.960852916979
0	1450	15556.750625119676	25.550750002731
0	1453	15646.043601493515	89.292976373839
0	1456	15719.81355062541	73.769949131895
0	1459	15739.337822614977	19.524271989567
0	1461	15757.325264844288	17.987442229311
0	1463	15770.921214833589	13.595949989301
0	1467	15823.550335396297	52.629120562708
0	1471	15915.548679195263	91.998343798966
0	1473	15927.78538751593	12.236708320667
0	1477	16041.009319369884	113.22393185395
0	1480	16083.421098041594	42.41177867171
0	1482	16095.219280630336	11.798182588742
0	1485	16097.842724394719	2.623443764383
0	1487	16100.171068508795	2.328344114076
0	1490	16109.380548916803	9.209480408008
0	1494	16132.689631180689	23.309082263886
0	1498	16198.406165435447	65.716534254758
0	1500	16200.529505012493	2.123339577046
0	1503	16222.078756353879	21.549251341386
0	1506	16243.159255921867	21.080499567988
0	1510	16281.553986480562	38.394730558695
0	1512	16283.033837116511	1.479850635949
0	1516	16329.776960301327	46.743123184816
0	1519	16365.902498512062	36.125538210735
0	1521	16368.652695434808	2.750196922746
0	1525	16406.120439475952	37.467744041144
0	1527	16418.009427968535	11.888988492583
0	1530	16443.391672108376	25.382244139841
0	1533	16463.191291539904	19.799619431528
0	1535	16472.19004663546	8.998755095556
0	1540	16531.467639022378	59.277592386918
0	1543	16562.749956153911	31.282317131533
0	1545	16589.496254579624	26.746298425713
0	1548	16640.853389674001	51.357135094377
0	1552	16653.424470847564	12.571081173563
0	1555	16704.834099505194	51.40962865763
0	1557	16711.808484620692	6.974385115498
0	1559	16726.915489242469	15.107004621777
0	1564	16786.462484220213	59.546994977744
0	1567	16827.979932837142	41.517448616929
0	1570	16869.256011521468	41.276078684326
0	1573	16892.815070460786	23.559058939318
0	1575	16897.367349349489	4.552278888703
0	1577	16905.371462185459	8.00411283597
0	1582	16946.540066218493	41.168604033034
0	1585	16963.609686139621	17.069619921128
0	1588	17064.210390181392	100.60070404177
0	1591	17105.829399976701	41.619009795309
0	1593	17107.35030551922	1.520905542519
0	1597	17195.265255384849	87.914949865629
0	1599	17208.218254234674	12.952998849825
0	1601	17213.119097443932	4.900843209258
0	1606	17286.582115383025	73.463017939093
0	1608	17287.837268191894	1.255152808869
0	1610	17295.168799762872	7.331531570978
0	1614	17310.389719991664	15.220920228792
0	1616	17311.599730471121	1.210010479457
0	1621	17343.897165663983	32.297435192862
0	1623	17372.113548565257	28.216382901274
0	1626	17382.405459066407	10.29191050115
0	1629	17393.312799058739	10.907339992332
0	1631	17402.678096490598	9.365297431859
0	1635	17428.797309400157	26.119212909559
0	1637	17430.78197728235	1.984667882193
0	1641	17473.758005264976	42.976027982626
0	1644	17507.34478948978	33.586784224804
0	1646	17520.195648642622	12.850859152842
0	1650	17532.192622961717	11.996974319095
0	1652	17540.737894646873	8.545271685156
0	1654	17543.501930164864	2.764035517991
0	1660	17602.773113034422	59.271182869558
0	1662	17617.528619185158	14.755506150736
0	1665	17633.398193065353	15.869573880195
0	1669	17709.44698261407	76.048789548717
0	1671	17742.819820326667	33.372837712597
0	1675	17785.658531653509	42.838711326842
0	1678	17819.968018863543	34.309487210034
0	1680	17833.52166351196	13.553644648417
0	1684	17847.833866683319	14.312203171359
0	1687	17895.535827527146	47.701960843827
0	1690	17926.451911690974	30.916084163828
0	1693	17993.787771216534	67.33585952556
0	1695	17998.398986722723	4.611215506189
0	1698	18030.518036436147	32.119049713424
0	1700	18067.984238838829	37.466202402682
0	1705	18109.537236652031	41.552997813202
0	1708	18125.73858463192	16.201347979889
0	1710	18152.01099948709	26.27241485517
0	1713	18180.783224734618	28.772225247528
0	1717	18225.57447820235	44.791253467732
0	1719	18244.779709086833	19.205230884483
0	1722	18289.910806488143	45.13109740131
0	1724	18291.376433926833	1.46562743869
0	1728	18326.349333538215	34.972899611382
0	1731	18336.907617042461	10.558283504246
0	1733	18340.851673724569	3.944056682108
0	1735	18345.8671649489	5.015491224331
0	1740	18372.259944525152	26.392779576252
0	1744	18415.29087290173	43.030928376578
0	1746	18425.178298137007	9.887425235277
0	1748	18441.589786471788	16.411488334781
0	1751	18456.757182569322	15.167396097534
0	1756	18490.786910238542	34.02972766922
0	1758	18492.545606788488	1.758696549946
0	1762	18528.278682196622	35.733075408134
0	1764	18534.936220578811	6.657538382189
0	1768	18689.505396209713	154.5691756309
0	1770	18693.653517385044	4.148121175331
0	1773	18703.872030572734	10.21851318769
0	1775	18712.504105570256	8.632074997522
0	1777	18722.228413821415	9.724308251159
0	1782	18756.273329245113	34.044915423698
0	1785	18775.867737860147	19.594408615034
0	1787	18784.610237977724	8.742500117577
0	1789	18786.984322818483	2.374084840759
0	1795	18812.214452703926	25.230129885443
0	1797	18828.941922782324	16.727470078398
0	1801	18874.43853611384	45.496613331516
0	1804	19007.743414906156	133.30487879232
0	1807	19012.234952245979	4.491537339823
0	1810	19051.188460702815	38.953508456836
0	1813	19083.616950149117	32.428489446302
0	1815	19111.935744412308	28.318794263191
0	1818	19116.191647149662	4.255902737354
0	1820	19126.773139397107	10.581492247445
0	1823	19167.114340992037	40.34120159493
0	1827	19196.091003352631	28.976662360594
0	1830	19215.161897845315	19.070894492684
0	1834	19234.970095207052	19.808197361737
0	1836	19250.72902313206	15.758927925008
0	1838	19259.700868911292	8.971845779232
0	1841	19260.839901822505	1.139032911213
0	1845	19357.04260714763	96.202705325125
0	1849	19378.021564550331	20.978957402701
0	1852	19432.156411595445	54.134847045114
0	1855	19461.245281292609	29.088869697164
0	1857	19471.303310167903	10.058028875294
0	1861	19642.236216214818	170.93290604692
0	1863	19646.266662162625	4.030445947807
0	1866	19652.088311103955	5.82164894133
0	1869	19663.461730161123	11.373419057168
0	1873	19708.026086598406	44.564356437283
0	1875	19768.877445829402	60.851359230996
0	1879	19804.355097803468	35.477651974066
0	1882	19878.864320924266	74.509223120798
0	1884	19887.545386677694	8.681065753428
0	1887	19892.343175619162	4.797788941468
0	1891	19944.371670959188	52.028495340026
0	1893	19984.869782292339	40.498111333151
0	1895	19989.848232375507	4.978450083168
0	1899	20008.052180536714	18.203948161207
0	1903	20034.619746008955	26.567565472241
0	1905	20044.699993029686	10.080247020731
0	1909	20096.030263902343	51.330270872657
0	1912	20124.61513455532	28.584870652977
0	1915	20165.278181381831	40.663046826511
0	1917	20172.093085739902	6.814904358071
0	1921	20215.78184851802	43.688762778118
0	1924	20273.406673068516	57.624824550496
0	1927	20279.860014034576	6.45334096606
0	1930	20352.143062038692	72.283048004116
0	1933	20362.679492878739	10.536430840047
0	1935	20381.815553508897	19.136060630158
0	1938	20413.353546369411	31.537992860514
0	1940	20416.160677451183	2.807131081772
0	1945	20440.829103981705	24.668426530522
0	1947	20448.44997029333	7.620866311625
0	1950	20452.720771014861	4.270800721531
0	1952	20465.519417765604	12.798646750743
0	1957	20542.121239696061	76.601821930457
0	1960	20558.948552924869	16.827313228808
0	1962	20559.615120634286	0.666567709417
0	1964	20581.779900120252	22.164779485966
0	1969	20691.621195953673	109.84129583342
0	1972	20776.560280322695	84.939084369022
0	1975	20796.119358137658	19.559077814963
0	1978	20866.504882285213	70.385524147555
0	1980	20878.253635281545	11.748752996332
0	1982	20878.666537023517	0.412901741972
0	1987	20943.629117776962	64.962580753445
0	1990	20955.082291819557	11.453174042595
0	1992	20960.556207640996	5.473915821439
0	1995	20990.98458322706	30.428375586064
0	1998	20995.294003261659	4.309420034599
0	2000	21000.393939669297	5.099936407638
0	2002	21001.438359457644	1.044419788347
0	2005	21002.873443198386	1.435083740742
0	2009	21016.01894517742	13.145501979034
0	2013	21071.177481737984	55.158536560564
0	2016	21071.898489012905	0.721007274921
0	2019	21094.168096693894	22.269607680989
0	2023	21175.62105972245	81.452963028556
0	2026	21191.642459955597	16.021400233147
0	2029	21333.708200036729	142.06574008113
0	2031	21334.778364004312	1.070163967583
0	2033	21341.57227282193	6.793908817618
0	2037	21351.041035836699	9.468763014769
0	2039	21358.778178222207	7.737142385508
0	2043	21381.088248680779	22.310070458572
0	2047	21412.743744882486	31.655496201707
0	2049	21435.634435721094	22.890690838608
0	2051	21442.162785662024	6.52834994093
0	2056	21507.182450096863	65.019664434839
0	2058	21548.016604341198	40.834154244335
0	2062	21574.244197412783	26.227593071585
0	2065	21646.988889980532	72.744692567749
0	2068	21661.61430498769	14.625415007158
0	2070	21664.369717692986	2.755412705296
0	2072	21664.705564524769	0.335846831783
0	2076	21671.874216538781	7.168652014012
0	2078	21684.039187673168	12.164971134387
0	2083	21723.652312313012	39.613124639844
0	2086	21733.626984528545	9.974672215533
0	2088	21738.506637789647	4.879653261102
0	2091	21782.633026232519	44.126388442872
0	2095	21859.106196506532	76.473170274013
0	2098	22019.657767304816	160.55157079828
0	2100	22023.549477914498	3.891710609682
0	2103	22031.205000960485	7.655523045987
0	2105	22034.260340350528	3.055339390043
0	2108	22065.948744537559	31.688404187031
0	2112	22102.60083350872	36.652088971161
0	2115	22133.916545286863	31.315711778143
0	2117	22137.719610664907	3.803065378044
0	2120	22147.933033804791	10.213423139884
0	2123	22149.219328700129	1.286294895338
0	2126	22157.100443042753	7.881114342624
0	2128	22159.527618303658	2.427175260905
0	2132	22235.825802569098	76.29818426544
0	2134	22240.759294542302	4.933491973204
0	2136	22243.153756325751	2.394461783449
0	2138	22247.978692264133	4.824935938382
0	2140	22252.364451056223	4.38575879209
0	2145	22269.544686290953	17.18023523473
0	2149	22286.162508216983	16.61782192603
0	2152	22305.529863829513	19.36735561253
0	2157	22348.001062407054	42.471198577541
0	2161	22438.199375390491	90.198312983437
0	2164	22467.966312983636	29.766937593145
0	2166	22469.011247244137	1.044934260501
0	2169	22568.714172322621	99.702925078484
0	2171	22572.446456252893	3.732283930272
0	2176	22591.286608071804	18.840151818911
0	2178	22597.829727068418	6.543118996614
0	2180	22602.707749148431	4.878022080013
0	2184	22652.211195862037	49.503446713606
0	2187	22675.161724061811	22.950528199774
0	2190	22697.199838052639	22.038113990828
0	2192	22700.686785683685	3.486947631046
0	2194	22707.897626762696	7.210841079011
0	2200	22766.234390465401	58.336763702705
0	2202	22770.079117992579	3.844727527178
0	2204	22781.146550471251	11.067432478672
0	2207	22813.689657142554	32.543106671303
0	2212	22865.396685347807	51.707028205253
0	2214	22885.365527784739	19.968842436932
0	2218	22917.658165605325	32.292637820586
0	2220	22944.700310411067	27.042144805742
0	2224	23007.538732731428	62.838422320361
0	2226	23046.225966023804	38.687233292376
0	2228	23060.947215780061	14.721249756257
0	2230	23061.587076070938	0.639860290877
0	2233	23065.074757776756	3.487681705818
0	2239	23181.963228120572	116.88847034382
0	2241	23183.083203850451	1.119975729879
0	2243	23187.701561542656	4.618357692205
0	2248	23292.394702295956	104.6931407533
0	2250	23302.550526222223	10.155823926267
0	2252	23328.828727664615	26.278201442392
0	2257	23428.651102020157	99.822374355542
0	2260	23475.24473408996	46.593632069803
0	2262	23501.586137952987	26.341403863027
0	2265	23519.309613497509	17.723475544522
0	2269	23568.640033709322	49.330420211813
0	2272	23665.934163572407	97.294129863085
0	2275	23712.878240985577	46.94407741317
0	2277	23715.323745235623	2.445504250046
0	2279	23722.456915037716	7.133169802093
0	2281	23724.844145205743	2.387230168027
0	2283	23728.450961595717	3.606816389974
0	2287	23757.52306327528	29.072101679563
0	2290	23761.200698744031	3.677635468751
0	2293	23772.949383798527	11.748685054496
0	2299	23828.371126270791	55.421742472264
0	2302	23911.834786127281	83.46365985649
0	2305	23977.883177520108	66.048391392827
0	2307	23978.294966666582	0.411789146474
0	2310	23996.603390206287	18.308423539705
0	2314	24079.149254448848	82.545864242561
0	2316	24083.777780994962	4.628526546114
0	2319	24100.337496121544	16.559715126582
0	2321	24102.389131829198	2.051635707654
0	2325	24117.264756639931	14.875624810733
0	2327	24127.671171047269	10.406414407338
0	2332	24184.329388806426	56.658217759157
0	2335	24217.103148467703	32.773759661277
0	2337	24252.628899675468	35.525751207765
0	2340	24253.926953711985	1.298054036517
0	2343	24274.466635414843	20.539681702858
0	2346	24300.31680247747	25.850167062627
0	2348	24301.391097753057	1.074295275587
0	2350	24304.028387968565	2.637290215508
0	2355	24315.381255358837	11.352867390272
0	2357	24322.288582049843	6.907326691006
0	2359	24324.595418938664	2.306836888821
0	2361	24338.160309205787	13.564890267123
0	2366	24366.236827712537	28.07651850675
0	2370	24384.985721239636	18.748893527099
0	2374	24452.886829661714	67.901108422078
0	2376	24463.556032145244	10.66920248353
0	2378	24471.58595164382	8.029919498576
0	2381	24475.009546652271	3.423595008451
0	2385	24489.149636142957	14.140089490686
0	2389	24561.962562784602	72.812926641645
0	2392	24606.993653214626	45.031090430024
0	2395	24699.291410023562	92.297756808936
0	2398	24810.49138144537	111.19997142181
0	2400	24830.605139413861	20.113757968491
0	2404	24957.145718576672	126.54057916281
0	2406	24962.451273693577	5.305555116905
0	2410	25046.848427588152	84.397153894575
0	2412	25072.194217852997	25.345790264845
0	2416	25107.037675427303	34.843457574306
0	2419	25131.893963683849	24.856288256546
0	2422	25153.750964041356	21.857000357507
0	2425	25234.189051803004	80.438087761648
0	2427	25248.073135888075	13.884084085071
0	2431	25328.932996385104	80.859860497029
0	2433	25366.080518019694	37.14752163459
0	2436	25374.465291765444	8.38477374575
0	2440	25423.721098382439	49.255806616995
0	2442	25433.234226693769	9.51312831133
0	2446	25475.611002427071	42.376775733302
0	2449	25661.121307473071	185.510305046
0	2452	25680.459423896477	19.338116423406
0	2454	25684.345391892781	3.885967996304
0	2457	25699.351174755254	15.005782862473
0	2459	25701.817072735779	2.465897980525
0	2461	25704.34992248429	2.532849748511
0	2467	25767.086566709107	62.736644224817
0	2469	25770.160458752406	3.073892043299
0	2471	25793.014768177895	22.854309425489
0	2476	25902.11940209768	109.10463391979
0	2479	26029.689233980119	127.56983188244
0	2482	26095.48287758802	65.793643607901
0	2485	26139.428010267367	43.945132679347
0	2488	26157.181257949276	17.753247681909
0	2491	26171.951036472049	14.769778522773
0	2494	26200.118467267207	28.167430795158
0	2496	26202.981518908856	2.863051641649
0	2499	26215.414710673383	12.433191764527
0	2501	26224.373011515545	8.958300842162
0	2506	26321.928473354639	97.555461839094
0	2508	26337.961731308178	16.033257953539
0	2510	26342.572555631237	4.610824323059
0	2512	26349.608221811176	7.035666179939
0	2516	26381.110592949697	31.502371138521
0	2521	26436.279435938347	55.16884298865
0	2523	26443.003204755749	6.723768817402
0	2527	26512.075465999916	69.072261244167
0	2530	26584.237466516374	72.162000516458
0	2532	26596.306301701554	12.06883518518
0	2536	26642.819985166973	46.513683465419
0	2539	26713.372948907633	70.55296374066
0	2541	26725.741399747454	12.368450839821
0	2544	26765.58646958397	39.845069836516
0	2546	26775.843147933014	10.256678349044
0	2551	26898.478028808278	122.63488087526
0	2554	26900.709661047045	2.231632238767
0	2557	26992.527476976381	91.817815929336
0	2559	27010.029763643152	17.502286666771
0	2563	27079.113280023349	69.083516380197
0	2566	27089.648670010345	10.535389986996
0	2568	27095.646241156888	5.997571146543
0	2571	27103.238360766386	7.592119609498
0	2573	27106.843583281565	3.605222515179
0	2575	27112.866822528368	6.023239246803
0	2580	27155.706777281061	42.839954752693
0	2583	27162.564962861917	6.858185580856
0	2587	27194.608064163798	32.043101301881
0	2590	27263.400610663701	68.792546499903
0	2593	27327.709857635652	64.309246971951
0	2596	27384.950370259233	57.240512623581
0	2599	27403.325137578048	18.374767318815
0	2602	27474.3553327803	71.030195202252
0	2605	27524.715042612203	50.359709831903
0	2607	27568.958191878972	44.243149266769
0	2611	27587.897430434006	18.939238555034
0	2613	27593.56806458961	5.670634155604
0	2617	27639.054446696577	45.486382106967
0	2619	27666.126121489825	27.071674793248
0	2622	27671.775132930264	5.649011440439
0	2626	27708.848539364017	37.073406433753
0	2629	27722.712585178579	13.864045814562
0	2632	27754.921788279604	32.209203101025
0	2634	27774.610478311525	19.688690031921
0	2638	27835.157023851268	60.546545539743
0	2641	27846.810965781979	11.653941930711
0	2644	27892.739202089716	45.928236307737
0	2646	27902.956834245224	10.217632155508
0	2648	27903.361544589374	0.40471034415
0	2651	27939.981628008537	36.620083419163
0	2654	27962.683848456923	22.702220448386
0	2656	27974.162037347858	11.478188890935
0	2659	27993.115374947719	18.953337599861
0	2663	28001.636102741049	8.52072779333
0	2665	28018.131501859451	16.495399118402
0	2669	28043.886652273756	25.755150414305
0	2674	28090.412896040382	46.526243766626
0	2677	28094.153288183457	3.740392143075
0	2680	28110.298257512965	16.144969329508
0	2682	28115.426915279604	5.128657766639
0	2684	28121.648207112685	6.221291833081
0	2687	28145.345156556752	23.696949444067
0	2692	28172.262611554499	26.917454997747
0	2694	28194.707233745175	22.444622190676
0	2696	28211.070545977584	16.363312232409
0	2698	28217.212867200112	6.142321222528
0	2700	28221.465036536431	4.252169336319
0	2704	28228.035000222779	6.569963686348
0	2709	28358.263188446642	130.22818822386
0	2712	28414.628112267583	56.364923820941
0	2716	28508.84175484507	94.213642577487
0	2719	28519.826273628134	10.984518783064
0	2721	28538.922678604434	19.0964049763
0	2725	28579.19733213617	40.274653531736
0	2728	28678.703630692361	99.506298556191
0	2731	28701.190532806723	22.486902114362
0	2734	28736.207224854298	35.016692047575
0	2736	28752.785429514698	16.5782046604
0	2740	28811.136617568276	58.351188053578
0	2743	28872.037010553019	60.900392984743
0	2746	28944.440607125947	72.403596572928
0	2749	28997.596114789232	53.155507663285
0	2752	29005.701940760356	8.105825971124
0	2754	29042.106831736969	36.404890976613
0	2757	29068.715384673291	26.608552936322
0	2759	29082.939560957895	14.224176284604
0	2763	29107.011520737235	24.07195977934
0	2767	29133.074256024333	26.062735287098
0	2770	29171.860819777146	38.786563752813
0	2773	29220.628205526303	48.767385749157
0	2776	29249.896219869992	29.268014343689
0	2778	29332.115534324154	82.219314454162
0	2782	29341.83183866245	9.716304338296
0	2784	29350.10750249371	8.27566383126
0	2787	29367.492715400729	17.385212907019
0	2789	29389.921121054278	22.428405653549
0	2794	29436.656824153553	46.735703099275
0	2797	29476.250552980407	39.593728826854
0	2799	29497.936289060351	21.685736079944
0	2802	29514.673160977908	16.736871917557
0	2804	29516.576594526801	1.903433548893
0	2808	29526.976225625165	10.399631098364
0	2812	29611.753163941712	84.776938316547
0	2814	29630.167152182431	18.413988240719
0	2817	29646.657961169942	16.490808987511
0	2821	29677.826320295282	31.16835912534
0	2823	29690.643981354702	12.81766105942
0	2826	29702.788943264344	12.144961909642
0	2830	29738.231735026741	35.442791762397
0	2832	29789.016979476967	50.785244450226
0	2834	29792.266313124806	3.249333647839
0	2839	29860.863267963115	68.596954838309
0	2841	29867.715107946975	6.85183998386
0	2845	29917.246892218352	49.531784271377
0	2848	29965.707978825373	48.461086607021
0	2851	29988.786440320662	23.078461495289
0	2853	30012.252082852736	23.465642532074
0	2855	30015.888479611873	3.636396759137
0	2859	30044.356984876132	28.468505264259
0	2861	30055.384042004113	11.027057127981
0	2863	30071.037300480983	15.65325847687
0	2866	30086.983510512514	15.946210031531
0	2871	30140.602062471385	53.618551958871
0	2873	30143.337093306801	2.735030835416
0	2877	30159.193680741268	15.856587434467
0	2881	30282.221971418618	123.02829067735
0	2884	30317.350953399366	35.128981980748
0	2887	30346.010374510166	28.6594211108
0	2890	30364.051229572983	18.040855062817
0	2893	30428.434839426111	64.383609853128
0	2896	30447.202564684776	18.767725258665
0	2898	30457.097970652375	9.895405967599
0	2900	30465.584675796876	8.486705144501
0	2904	30486.499937703996	20.91526190712
0	2906	30487.797344811098	1.297407107102
0	2910	30538.226938066773	50.429593255675
0	2912	30538.467432447906	0.240494381133
0	2914	30549.184046526599	10.716614078693
0	2920	30620.749567459264	71.565520932665
0	2923	30754.509355484692	133.75978802543
0	2925	30760.716474363654	6.207118878962
0	2927	30769.871099726595	9.154625362941
0	2932	30899.86228864574	129.99118891915
0	2934	30918.013401030714	18.151112384974
0	2938	30960.016216562468	42.002815531754
0	2940	30962.730552955842	2.714336393374
0	2942	30965.438378259944	2.707825304102
0	2946	31017.659024312719	52.220646052775
0	2950	31078.504370681719	60.845346369
0	2952	31079.761684933741	1.257314252022
0	2954	31084.901254613135	5.139569679394
0	2959	31155.088231576957	70.186976963822
0	2962	31162.124612145594	7.036380568637
0	2965	31169.829242749963	7.704630604369
0	2967	31192.72841651246	22.899173762497
0	2971	31222.691795611382	29.963379098922
0	2973	31249.299732643754	26.607937032372
0	2975	31281.043205524408	31.743472880654
0	2977	31291.931531009715	10.888325485307
0	2982	31334.30008625176	42.368555242045
0	2985	31389.023018968606	54.722932716846
0	2988	31397.939512371634	8.916493403028
0	2992	31432.846828567544	34.90731619591
0	2995	31478.360157987536	45.513329419992
0	2997	31496.590300624265	18.230142636729
0	2999	31504.450444276204	7.860143651939
0	3003	31544.032587466956	39.582143190752
0	3005	31549.742423912951	5.709836445995
0	3008	31576.977349990287	27.234926077336
0	3013	31647.570051259015	70.592701268728
0	3015	31661.191650414815	13.6215991558
0	3018	31676.852797183574	15.661146768759
0	3022	31752.992844912098	76.140047728524
0	3025	31769.619521694424	16.626676782326
0	3028	31834.287821123321	64.668299428897
0	3030	31855.502767907716	21.214946784395
0	3032	31857.390816184592	1.888048276876
0	3036	31881.528846744638	24.138030560046
0	3038	31886.862436814708	5.33359007007
0	3043	31930.534952762683	43.672515947975
0	3045	31958.09240010724	27.557447344557
0	3048	31981.15957598292	23.06717587568
0	3052	32061.055666675192	79.896090692272
0	3054	32075.24307849932	14.187411824128
0	3056	32084.419828758095	9.176750258775
0	3058	32085.672965958373	1.253137200278
0	3064	32189.835400813632	104.16243485526
0	3067	32225.629691043853	35.794290230221
0	3069	32249.812278462287	24.182587418434
0	3073	32278.559855374894	28.747576912607
0	3075	32295.557268430008	16.997413055114
0	3079	32302.199850400361	6.642581970353
0	3081	32305.288460458474	3.088610058113
0	3083	32315.553773945297	10.265313486823
0	3085	32317.139326029367	1.58555208407
0	3087	32322.938570089456	5.799244060089
0	3092	32348.020121670899	25.081551581443
0	3095	32353.278654163074	5.258532492175
0	3097	32365.718815943024	12.44016177995
0	3101	32381.134159312632	15.415343369608
0	3103	32393.99417137159	12.860012058958
0	3109	32471.128470319384	77.134298947794
0	3112	32500.971777452943	29.843307133559
0	3115	32503.560622256673	2.58884480373
0	3117	32542.500607985632	38.939985728959
0	3119	32560.694692496645	18.194084511013
0	3123	32609.517462287759	48.822769791114
0	3127	32689.317097687554	79.799635399795
0	3130	32698.373795044516	9.056697356962
0	3133	32767.751356987388	69.377561942872
0	3135	32774.741757625349	6.990400637961
0	3138	32779.496150990601	4.754393365252
0	3140	32783.576954508684	4.080803518083
0	3145	32821.328496757764	37.75154224908
0	3148	33005.497614124672	184.16911736691
0	3150	33082.826213956934	77.328599832262
0	3154	33108.651790292211	25.825576335277
0	3157	33114.86741588665	6.215625594439
0	3159	33116.846910457207	1.979494570557
0	3161	33117.350680527268	0.503770070061
0	3165	33144.360805388533	27.010124861265
0	3167	33152.105224185861	7.744418797328
0	3172	33196.663587514053	44.558363328192
0	3175	33252.15862509666	55.495037582607
0	3177	33253.438601914654	1.279976817994
0	3181	33302.569518578351	49.130916663697
0	3184	33326.385593013422	23.816074435071
0	3187	33380.251264949656	53.865671936234
0	3190	33413.43685098939	33.185586039734
0	3193	33427.5892621619	14.15241117251
0	3196	33563.744103101777	136.15484093988
0	3199	33668.055329975986	104.31122687421
0	3201	33670.30496176714	2.249631791154
0	3203	33680.340630595667	10.035668828527
0	3206	33712.740297894448	32.399667298781
0	3208	33716.390805758228	3.65050786378
0	3214	33760.158868078028	43.7680623198
0	3216	33762.187963031678	2.02909495365
0	3219	33791.203722463908	29.01575943223
0	3221	33801.225362103588	10.02163963968
0	3226	33828.845746547814	27.620384444226
0	3228	33834.821926550784	5.97618000297
0	3230	33854.57814669289	19.756220142106
0	3232	33871.162545174261	16.584398481371
0	3238	33920.089387812449	48.926842638188
0	3240	33925.007526318968	4.918138506519
0	3242	33930.494809709736	5.487283390768
0	3246	33941.450357308816	10.95554759908
0	3250	33965.296911374318	23.846554065502
0	3253	34053.779300720435	88.482389346117
0	3255	34069.103170855629	15.323870135194
0	3259	34214.232849471905	145.12967861628
0	3261	34218.254688180822	4.021838708917
0	3263	34239.050286153797	20.795597972975
0	3268	34290.975458734131	51.925172580334
0	3271	34316.454196831716	25.478738097585
0	3273	34364.517371769463	48.063174937747
0	3276	34388.441961362029	23.924589592566
0	3278	34403.710295908616	15.268334546587
0	3283	34473.988451454849	70.278155546233
0	3285	34486.425116944101	12.436665489252
0	3287	34532.500206125407	46.075089181306
0	3291	34583.546926002351	51.046719876944
0	3295	34657.065715824034	73.518789821683
0	3298	34665.964037057986	8.898321233952
0	3301	34724.539271202365	58.575234144379
0	3304	34769.128714684639	44.589443482274
0	3306	34807.412996671338	38.284281986699
0	3308	34820.087608872008	12.67461220067
0	3312	34829.744155492678	9.65654662067
0	3314	34838.916631573958	9.17247608128
0	3318	34849.999600538247	11.082968964289
0	3320	34851.839379820879	1.839779282632
0	3325	34930.446625048136	78.607245227257
0	3328	34972.934059435984	42.487434387848
0	3330	34980.769189845783	7.835130409799
0	3334	35039.098747634243	58.32955778846
0	3336	35054.54782027697	15.449072642727
0	3338	35061.080564597884	6.532744320914
0	3340	35071.40062334179	10.320058743906
0	3344	35086.133394153773	14.732770811983
0	3346	35092.926997733044	6.793603579271
0	3349	35118.043808237245	25.116810504201
0	3355	35168.466459889462	50.422651652217
0	3358	35184.036615849794	15.570155960332
0	3360	35194.622472127706	10.585856277912
0	3362	35199.280531971877	4.658059844171
0	3366	35230.449689750585	31.169157778708
0	3369	35279.795129890082	49.345440139497
0	3372	35297.919163696379	18.124033806297
0	3374	35321.031649109228	23.112485412849
0	3377	35354.161176473482	33.129527364254
0	3380	35364.665313663452	10.50413718997
0	3383	35381.797811318543	17.132497655091
0	3388	35429.301253914626	47.503442596083
0	3390	35435.527099871182	6.225845956556
0	3394	35467.252111007351	31.725011136169
0	3396	35469.858654287885	2.606543280534
0	3398	35475.764124594856	5.905470306971
0	3403	35536.331648197137	60.567523602281
0	3406	35582.826021219604	46.494373022467
0	3409	35644.604932228241	61.778911008637
0	3412	35722.187565879438	77.582633651197
0	3415	35749.722688257254	27.535122377816
0	3418	35779.074972812373	29.352284555119
0	3420	35781.392872849528	2.317900037155
0	3423	35843.28063366547	61.887760815942
0	3426	35907.946399738093	64.665766072623
0	3429	35923.235274613555	15.288874875462
0	3432	35961.899496739572	38.664222126017
0	3436	35995.978139181908	34.078642442336
0	3438	35998.549473256606	2.571334074698
0	3442	36161.562662093683	163.01318883708
0	3445	36403.519167809551	241.95650571587
0	3448	36489.241422412058	85.722254602507
0	3451	36518.069020922998	28.82759851094
0	3453	36522.973014256425	4.903993333427
0	3457	36598.622389997478	75.649375741053
0	3459	36598.737302192978	0.1149121955
0	3461	36603.634215748868	4.89691355589
0	3466	36652.058272440797	48.424056691929
0	3469	36684.017259781418	31.958987340621
0	3472	36707.040462872649	23.023203091231
0	3474	36721.852852703621	14.812389830972
0	3477	36805.639752356066	83.786899652445
0	3479	36811.058528073878	5.418775717812
0	3483	36843.887458487169	32.828930413291
0	3485	36869.464885643432	25.577427156263
0	3490	36948.123854134969	78.658968491537
0	3493	36983.100210406989	34.97635627202
0	3495	36992.728559177232	9.628348770243
0	3498	37010.98795288756	18.259393710328
0	3502	37035.165530848339	24.177577960779
0	3504	37045.965163328132	10.799632479793
0	3506	37050.089257698981	4.124094370849
0	3511	37106.036404217002	55.947146518021
0	3513	37108.002049574893	1.965645357891
0	3516	37145.332655922164	37.330606347271
0	3518	37147.516966359587	2.184310437423
0	3521	37169.362482231062	21.845515871475
0	3523	37178.561133764336	9.198651533274
0	3527	37193.762039223042	15.200905458706
0	3531	37214.105979200884	20.343939977842
0	3535	37230.263293329509	16.157314128625
0	3538	37273.70929039126	43.445997061751
0	3541	37324.380610594545	50.671320203285
0	3543	37331.356047010093	6.975436415548
0	3546	37396.70436764767	65.348320637577
0	3549	37438.273603131171	41.569235483501
0	3552	37473.434457240839	35.160854109668
0	3556	37533.055363032744	59.620905791905
0	3558	37550.881086839521	17.825723806777
0	3560	37581.410977017876	30.529890178355
0	3563	37602.358374560187	20.947397542311
0	3568	37686.277512325619	83.919137765432
0	3570	37688.522533394537	2.245021068918
0	3572	37691.606186016053	3.083652621516
0	3574	37709.682912916597	18.076726900544
0	3579	37745.233151146222	35.550238229625
0	3582	37787.771738230858	42.538587084636
0	3585	37816.334649667244	28.562911436386
0	3589	37863.08823764832	46.753587981076
0	3591	37912.388671580741	49.300433932421
0	3595	37967.162192188053	54.773520607312
0	3597	38024.702794260614	57.540602072561
0	3600	38032.970172473251	8.267378212637
0	3603	38039.935896427265	6.965723954014
0	3607	38060.231407553782	20.295511126517
0	3609	38068.157919430219	7.926511876437
0	3613	38090.727599080525	22.569679650306
0	3615	38118.956111296464	28.228512215939
0	3619	38148.855552153461	29.899440856997
0	3621	38156.197234966215	7.341682812754
0	3623	38161.681293751355	5.48405878514
0	3628	38187.669633387059	25.988339635704
0	3631	38214.210842421473	26.541209034414
0	3633	38217.638674657332	3.427832235859
0	3635	38217.855386115022	0.21671145769
0	3639	38234.945714857748	17.090328742726
0	3643	38283.287887416826	48.342172559078
0	3646	38351.443847075874	68.155959659048
0	3649	38375.296364803246	23.852517727372
0	3651	38391.080532408243	15.784167604997
0	3653	38443.026187467689	51.945655059446
0	3656	38462.699888483794	19.673701016105
0	3660	38511.946889428405	49.247000944611
0	3663	38517.043239499689	5.096350071284
0	3666	38535.803554986559	18.76031548687
0	3669	38555.78911010145	19.985555114891
0	3673	38592.110877129785	36.321767028335
0	3675	38598.57058856923	6.459711439445
0	3678	38637.75624091361	39.18565234438
0	3681	38668.367765541521	30.611524627911
0	3683	38671.564171771564	3.196406230043
0	3685	38676.313748415234	4.74957664367
0	3687	38680.353563513702	4.039815098468
0	3689	38688.517444021721	8.163880508019
0	3691	38698.942380604703	10.424936582982
0	3698	38724.204340625141	25.261960020438
0	3700	38733.380806970662	9.176466345521
0	3702	38735.995475015807	2.614668045145
0	3709	38777.894286589708	41.898811573901
0	3711	38786.483330811796	8.589044222088
0	3715	38881.763351660395	95.280020848599
0	3718	38948.38777470344	66.624423043045
0	3721	38970.983082945423	22.595308241983
0	3723	38973.288119708401	2.305036762978
0	3727	39002.594797834352	29.306678125951
0	3729	39002.701941349579	0.107143515227
0	3731	39027.769835639597	25.067894290018
0	3735	39046.456857135103	18.687021495506
0	3738	39058.170036592031	11.713179456928
0	3742	39173.719948690612	115.54991209858
0	3745	39185.031566380657	11.311617690045
0	3748	39333.611613585807	148.58004720515
0	3750	39347.4018851494	13.790271563593
0	3753	39362.675038265195	15.273153115795
0	3756	39379.592920746603	16.917882481408
0	3760	39395.857618287923	16.26469754132
0	3763	39434.238067839111	38.380449551188
0	3765	39502.693814307597	68.455746468486
0	3767	39506.536099309866	3.842285002269
0	3770	39514.893130721434	8.357031411568
0	3772	39515.575097190633	0.681966469199
0	3776	39522.593085528746	7.017988338113
0	3779	39539.565550660081	16.972465131335
0	3782	39557.247719174397	17.682168514316
0	3785	39580.563758477565	23.316039303168
0	3787	39581.095106056887	0.531347579322
0	3792	39644.983235514693	63.888129457806
0	3794	39653.000907052936	8.017671538243
0	3798	39684.594160872525	31.593253819589
0	3800	39687.652494855319	3.058333982794
0	3805	39772.007277286001	84.354782430682
0	3808	39777.637967563088	5.630690277087
0	3811	39800.576259774638	22.93829221155
0	3814	39874.212526124988	73.63626635035
0	3817	39904.135667790835	29.923141665847
0	3820	39917.614014212723	13.478346421888
0	3823	39989.539733085637	71.925718872914
0	3826	40044.066337247812	54.526604162175
0	3828	40053.856680179606	9.790342931794
0	3830	40058.399283727039	4.542603547433
0	3833	40095.732812988573	37.333529261534
0	3837	40124.574658306336	28.841845317763
0	3839	40124.620080450346	0.04542214401
0	3841	40130.347314184367	5.727233734021
0	3845	40134.641267738173	4.293953553806
0	3847	40138.967479884087	4.326212145914
0	3850	40155.077782813564	16.110302929477
0	3852	40156.248431342262	1.170648528698
0	3856	40162.309075692877	6.060644350615
0	3862	40187.587209773624	25.278134080747
0	3865	40242.601340140326	55.014130366702
0	3867	40265.44147264345	22.840132503124
0	3871	40404.321606850971	138.88013420752
0	3874	40421.190235576901	16.86862872593
0	3877	40547.810837917354	126.62060234045
0	3879	40549.559723616607	1.748885699253
0	3881	40554.416072651345	4.856349034738
0	3886	40616.352662711453	61.936590060108
0	3889	40635.537355643456	19.184692932003
0	3892	40657.2721372528	21.734781609344
0	3894	40658.514467910483	1.242330657683
0	3897	40685.303595850001	26.789127939518
0	3901	40707.46236690334	22.158771053339
0	3904	40758.559000196775	51.096633293435
0	3906	40761.455039207383	2.896039010608
0	3909	40801.471185343422	40.016146136039
0	3912	40812.667682379794	11.196497036372
0	3916	40963.962917116977	151.29523473718
0	3918	40980.140939822264	16.178022705287
0	3922	41017.551903278423	37.410963456159
0	3925	41098.9295362722	81.377632993777
0	3927	41109.519811090844	10.590274818644
0	3930	41136.309149804837	26.789338713993
0	3933	41169.691497984245	33.382348179408
0	3936	41192.024212434241	22.332714449996
0	3938	41201.506104585004	9.481892150763
0	3941	41217.053554805765	15.547450220761
0	3944	41232.751752863391	15.698198057626
0	3947	41243.614832148344	10.863079284953
0	3949	41259.096294999738	15.481462851394
0	3952	41307.103843735074	48.007548735336
0	3954	41312.46075976845	5.356916033376
0	3956	41313.586048681185	1.125288912735
0	3958	41326.810935761638	13.224887080453
0	3963	41343.944823871761	17.133888110123
0	3969	41431.723009371743	87.778185499982
0	3972	41435.614576146228	3.891566774485
0	3975	41447.630425085322	12.015848939094
0	3979	41487.675853493015	40.045428407693
0	3981	41511.998012893127	24.322159400112
0	3985	41633.271353643804	121.27334075068
0	3987	41635.975063546113	2.703709902309
0	3989	41638.962003444866	2.986939898753
0	3993	41679.642228000151	40.680224555285
0	3996	41689.318224115599	9.675996115448
0	3999	41704.052754444889	14.73453032929
0	4002	41713.638592684273	9.585838239384
0	4006	41979.074058909482	265.43546622521
0	4008	42000.480731763079	21.406672853597
0	4010	42001.555009613	1.074277849921
0	4013	42015.16649192064	13.61148230764
0	4018	42185.433978420579	170.26748649994
0	4020	42186.888015164787	1.454036744208
0	4022	42199.183650367954	12.295635203167
0	4026	42225.2167204507	26.033070082746
0	4028	42256.750531902752	31.533811452052
0	4030	42256.823892477313	0.073360574561
0	4034	42291.652246434983	34.82835395767
0	4037	42308.48581096258	16.833564527597
0	4040	42367.123089759756	58.637278797176
0	4045	42408.677881835877	41.554792076121
0	4047	42427.350935710211	18.673053874334
0	4050	42436.229766190229	8.878830480018
0	4053	42436.68683080557	0.457064615341
0	4056	42456.508234678177	19.821403872607
0	4060	42530.526385876277	74.0181511981
0	4062	42550.182783306266	19.656397429989
0	4064	42579.748726200297	29.565942894031
0	4069	42607.804430942904	28.055704742607
0	4072	42650.129885702913	42.325454760009
0	4075	42688.219919926898	38.090034223985
0	4077	42702.283588012597	14.063668085699
0	4081	42729.458186822826	27.174598810229
0	4083	42736.014914099052	6.556727276226
0	4087	42802.713156140663	66.698242041611
0	4089	42855.642611258995	52.929455118332
0	4092	42873.724752527081	18.082141268086
0	4095	42924.194135656295	50.469383129214
0	4097	42932.024133466184	7.829997809889
0	4099	42945.183416258477	13.159282792293
0	4101	42949.993766087412	4.810349828935
0	4106	42957.222498328489	7.228732241077
0	4109	42974.248860413936	17.026362085447
0	4114	42988.394836460339	14.145976046403
0	4117	43030.662730650048	42.267894189709
0	4120	43053.192367723929	22.529637073881
0	4123	43056.537677053295	3.345309329366
0	4126	43111.207840933414	54.670163880119
0	4129	43117.352264402174	6.14442346876
0	4131	43136.6575551105	19.305290708326
0	4133	43138.307026884681	1.649471774181
0	4138	43153.660388932025	15.353362047344
0	4140	43176.917802360769	23.257413428744
0	4142	43190.467400359489	13.54959799872
0	4144	43193.014810302257	2.547409942768
1	1	7	0
1	4	149.170588950222	0
1	7	210.225161634168	0
1	9	279.86856583169	0
1	13	349.993181250447	0
1	16	413.553473062973	0
1	19	519.578962154921	0
1	22	586.315094712898	0
1	25	626.663514568713	0
1	28	703.837438713502	0
1	30	724.164667678131	0
1	32	728.036418191128	0
1	34	740.552609641325	0
1	37	762.689062142805	0
1	43	873.55450728653	0
1	45	879.844923377066	0
1	48	890.701137385479	0
1	52	908.226881329322	0
1	54	924.994321640333	0
1	56	932.363770842074	0
1	58	956.681606163132	0
1	63	1016.297343287785	0
1	67	1072.218421676492	0
1	70	1090.659584548415	0
1	73	1113.792092200894	0
1	76	1158.630000217677	0
1	78	1175.899934613347	0
1	82	1216.798935843573	0
1	84	1221.190185085888	0
1	88	1448.954005246379	0
1	90	1468.293978125073	0
1	93	1491.823199067687	0
1	95	1496.551031781875	0
1	100	1538.000330661369	0
1	102	1550.248813198642	0
1	105	1622.492182428408	0
1	108	1630.84460247016	0
1	112	1664.273676219001	0
1	115	1718.800042394705	0
1	118	1728.139990355685	0
1	121	1778.752703991766	0
1	123	1787.183128231193	0
1	125	1787.339748351408	0
1	129	1816.175567476048	0
1	132	1834.210001886798	0
1	136	1854.349306941882	0
1	139	1878.312976304027	0
1	142	1901.943154591378	0
1	144	1904.453399273355	0
1	147	1924.80546195955	0
1	151	1953.914554846484	0
1	154	1975.986758807189	0
1	156	1981.779547222226	0
1	158	1993.932844659983	0
1	161	1999.439348833619	0
1	165	2074.015030670498	0
1	168	2090.284193794235	0
1	172	2145.614613903904	0
1	175	2192.086634364306	0
1	178	2233.090370480457	0
1	180	2243.779795635014	0
1	182	2265.326454362918	0
1	187	2295.78861524921	0
1	190	2315.154866715164	0
1	192	2335.355235004905	0
1	196	2385.075591200539	0
1	198	2385.926502463348	0
1	201	2418.767031317402	0
1	205	2451.533925176849	0
1	208	2505.66785037946	0
1	211	2547.7798552175	0
1	213	2568.039236909402	0
1	217	2661.327441475975	0
1	219	2666.128682780409	0
1	223	2728.467385757513	0
1	225	2731.04906192976	0
1	229	2783.959492583761	0
1	232	2807.697197638342	0
1	235	2833.242353891995	0
1	238	2864.360893523327	0
1	241	2887.838189835939	0
1	244	2983.871454586908	0
1	246	2991.777101189163	0
1	248	2992.170818483119	0
1	252	3011.478112205675	0
1	256	3062.745230611134	0
1	259	3169.335270941567	0
1	261	3186.525908050294	0
1	265	3207.381918948811	0
1	267	3216.805642470869	0
1	271	3271.15116011918	0
1	274	3308.281164530478	0
1	276	3316.721691278945	0
1	280	3376.564066429631	0
1	282	3376.94528087985	0
1	285	3406.823630442085	0
1	289	3552.880911306362	0
1	292	3592.739621448544	0
1	294	3594.624623949306	0
1	297	3605.707575368594	0
1	299	3607.219761665558	0
1	302	3625.624316881694	0
1	307	3656.76139739156	0
1	309	3677.145424485109	0
1	312	3702.328506803981	0
1	315	3740.445104610216	0
1	319	3784.246103744672	0
1	321	3794.209449673789	0
1	323	3794.496089163075	0
1	325	3794.52454118396	0
1	329	3852.713797544911	0
1	334	3883.357532704745	0
1	336	3890.501385835996	0
1	338	3895.796837884993	0
1	343	3937.361597505692	0
1	346	3951.770150797421	0
1	349	4018.562671000502	0
1	352	4116.959783929018	0
1	355	4171.139796542031	0
1	358	4268.981726365398	0
1	361	4292.692881863396	0
1	364	4303.665609029753	0
1	366	4308.615190474334	0
1	370	4328.912644626581	0
1	373	4345.408269608847	0
1	375	4349.648276263456	0
1	377	4349.967610536427	0
1	379	4357.380724930736	0
1	382	4390.372268395813	0
1	387	4405.758714937099	0
1	389	4406.364472457823	0
1	391	4434.212924584682	0
1	397	4462.686502196947	0
1	399	4507.003666314492	0
1	401	4520.905417700163	0
1	404	4523.652282705535	0
1	407	4543.951339517626	0
1	412	4617.099368697596	0
1	415	4629.322420171054	0
1	417	4632.262049124937	0
1	421	4741.904826157616	0
1	424	4788.096021424005	0
1	427	4894.827776963324	0
1	430	4922.815231881482	0
1	432	4940.511799356393	0
1	435	4965.7857831904	0
1	437	5003.343502298602	0
1	442	5045.813949317802	0
1	444	5074.021892918642	0
1	447	5122.683065306493	0
1	450	5142.897757210508	0
1	453	5158.288002777797	0
1	455	5163.532904246823	0
1	460	5251.606101415764	0
1	462	5261.467678088847	0
1	465	5285.142293648193	0
1	469	5287.592937398545	0
1	471	5295.207598523677	0
1	475	5374.764596052711	0
1	478	5393.806660323239	0
1	481	5414.303487083842	0
1	483	5434.769518368948	0
1	487	5499.309816298556	0
1	490	5540.993437635444	0
1	493	5663.593842612596	0
1	495	5685.453963114651	0
1	499	5765.334221522274	0
1	502	5803.604689573788	0
1	505	5872.690992642199	0
1	508	5890.031238607596	0
1	510	5901.939379491597	0
1	514	5941.003896316999	0
1	516	5963.561909182541	0
1	518	5977.268936433364	0
1	521	5999.363578366609	0
1	525	6023.211474006514	0
1	529	6137.346267341254	0
1	531	6139.221425397765	0
1	533	6148.953305632195	0
1	537	6173.02108848647	0
1	541	6228.31466792189	0
1	544	6243.518027583843	0
1	547	6260.557080057179	0
1	549	6296.185817993146	0
1	552	6332.833786823211	0
1	556	6358.09901523961	0
1	558	6384.535002458184	0
1	562	6423.120747147465	0
1	565	6464.669474452742	0
1	568	6509.809961956928	0
1	571	6517.652809873353	0
1	574	6594.892394482676	0
1	577	6611.372300100075	0
1	580	6642.717809080288	0
1	583	6663.351513172182	0
1	585	6676.330948312351	0
1	587	6696.650632301018	0
1	590	6714.588726160362	0
1	595	6733.090430043978	0
1	597	6743.306948112402	0
1	601	6787.223437366267	0
1	603	6791.112999108406	0
1	605	6809.31264306751	0
1	607	6812.137179388754	0
1	609	6813.558437898647	0
1	611	6814.753267204391	0
1	619	6881.836422301265	0
1	622	6893.78036202729	0
1	624	6910.124232525076	0
1	628	6975.30722408423	0
1	630	6982.844226043736	0
1	634	7079.238575451517	0
1	637	7106.27877907498	0
1	640	7120.483961248955	0
1	642	7122.970902298266	0
1	645	7123.262256792949	0
1	647	7150.580719042805	0
1	652	7194.865989646994	0
1	654	7195.551071217523	0
1	657	7228.168625953526	0
1	661	7276.702192371475	0
1	663	7301.506793313399	0
1	665	7320.242286994341	0
1	669	7339.606179553788	0
1	673	7387.347810580602	0
1	675	7400.985421045226	0
1	679	7513.700042566037	0
1	681	7521.543191163017	0
1	683	7533.023813174654	0
1	685	7551.481161783531	0
1	688	7580.922797019071	0
1	692	7594.276062032769	0
1	695	7618.627741130635	0
1	699	7623.638653035796	0
1	702	7637.264101239768	0
1	706	7794.533523591171	0
1	709	7806.463842665229	0
1	711	7810.129767882404	0
1	714	7819.00834814961	0
1	718	7889.453590682943	0
1	721	7904.938442874124	0
1	723	7920.272549253269	0
1	726	7945.136596532794	0
1	729	7960.733700202843	0
1	731	7964.542674675553	0
1	734	7991.409249171416	0
1	739	8038.274066623597	0
1	741	8064.666710772277	0
1	744	8100.185973643295	0
1	747	8105.524582466987	0
1	751	8262.523847602974	0
1	753	8276.232629079314	0
1	756	8323.623269872993	0
1	759	8387.345931218462	0
1	761	8394.736297847889	0
1	766	8418.434818117183	0
1	769	8464.317027800013	0
1	771	8466.037702191056	0
1	774	8481.987703709647	0
1	777	8501.274646009196	0
1	781	8532.033687730225	0
1	783	8534.701352703539	0
1	786	8552.661916798888	0
1	790	8598.024930897715	0
1	792	8609.069910839955	0
1	795	8619.346403314449	0
1	799	8642.984043273285	0
1	801	8667.472969923846	0
1	803	8667.993686472042	0
1	808	8732.374977127086	0
1	811	8811.639853511244	0
1	813	8820.845740258592	0
1	816	8856.88473985142	0
1	819	8898.491991799847	0
1	821	8904.191868847747	0
1	825	8908.385266231094	0
1	827	8911.693484528504	0
1	832	8938.853840371397	0
1	834	8955.899590073563	0
1	838	8986.872821900563	0
1	841	9002.001284515068	0
1	843	9007.553215120524	0
1	847	9102.761768917135	0
1	849	9106.204375522466	0
1	852	9110.978901639074	0
1	856	9194.085405721175	0
1	859	9298.712744948154	0
1	862	9374.977103618162	0
1	865	9457.79383169177	0
1	867	9469.050773886335	0
1	871	9480.029351226978	0
1	873	9487.685086469889	0
1	876	9523.666493991833	0
1	878	9539.492546231319	0
1	882	9551.178557744647	0
1	885	9604.361931851795	0
1	889	9623.531474585877	0
1	891	9626.017707639257	0
1	895	9652.211449411187	0
1	898	9699.358712663055	0
1	900	9725.590879219017	0
1	902	9740.578507393346	0
1	904	9748.104909252776	0
1	906	9751.41317354239	0
1	913	9785.394595764219	0
1	915	9799.413720664666	0
1	919	9894.124286440029	0
1	922	9968.026829993575	0
1	925	10041.493480551934	0
1	927	10057.372355988405	0
1	931	10081.078550802581	0
1	934	10097.362774296571	0
1	936	10097.734432222571	0
1	938	10111.166937410112	0
1	940	10118.486355941942	0
1	945	10136.805856077931	0
1	947	10150.658432033455	0
1	950	10189.409087471006	0
1	952	10197.487565047707	0
1	956	10216.863632974766	0
1	959	10228.263418335344	0
1	961	10239.015561298331	0
1	964	10262.250775722033	0
1	966	10267.200251277466	0
1	972	10285.153693700423	0
1	976	10324.900773150461	0
1	978	10370.532406847654	0
1	982	10437.211390638637	0
1	985	10521.531120620891	0
1	987	10524.294865747406	0
1	989	10524.934554900975	0
1	994	10589.06808526575	0
1	997	10705.785050911151	0
1	1000	10731.049534507488	0
1	1003	10741.658812599594	0
1	1005	10742.310712963549	0
1	1007	10745.264742335654	0
1	1010	10776.622094603105	0
1	1013	10804.138973936898	0
1	1015	10806.205372449213	0
1	1017	10807.472426489565	0
1	1024	10871.542543785854	0
1	1027	10883.263352308449	0
1	1029	10885.625714465345	0
1	1031	10893.382104355692	0
1	1036	10929.995405182275	0
1	1039	10986.185533987804	0
1	1041	11001.205794140441	0
1	1044	11008.136363816289	0
1	1046	11013.196607860572	0
1	1049	11017.985646825608	0
1	1051	11022.248454380717	0
1	1056	11043.008450809983	0
1	1058	11048.221399482333	0
1	1063	11119.584799757647	0
1	1066	11141.519658040196	0
1	1069	11157.58572089274	0
1	1071	11166.634918040543	0
1	1074	11192.347199075895	0
1	1076	11193.381358804962	0
1	1080	11208.974212742581	0
1	1083	11254.489653654055	0
1	1087	11318.609248376124	0
1	1090	11336.798519956711	0
1	1092	11347.362514162126	0
1	1094	11362.471951770824	0
1	1097	11452.280380653451	0
1	1099	11453.130028644657	0
1	1101	11460.384603959354	0
1	1105	11511.037204343234	0
1	1109	11522.524054812372	0
1	1114	11570.94640527836	0
1	1117	11589.301880971351	0
1	1119	11616.328121555917	0
1	1123	11746.237713274951	0
1	1126	11768.402722046717	0
1	1129	11811.943183486599	0
1	1131	11866.764652681383	0
1	1134	11883.530885889615	0
1	1138	11907.686898950152	0
1	1140	11934.443936693614	0
1	1144	11948.264310947499	0
1	1146	11981.62794563514	0
1	1150	12009.331242468066	0
1	1153	12074.422846244552	0
1	1155	12084.960438179074	0
1	1158	12109.602763001423	0
1	1162	12203.026699278337	0
1	1165	12286.466327448941	0
1	1168	12355.908668639467	0
1	1170	12364.033668200781	0
1	1173	12384.359875867763	0
1	1175	12390.714598495786	0
1	1177	12409.834646559838	0
1	1183	12491.222575640387	0
1	1185	12507.197209629592	0
1	1189	12528.425085946286	0
1	1191	12537.225762343237	0
1	1195	12564.822407866607	0
1	1197	12570.88417835376	0
1	1201	12612.664974761808	0
1	1203	12613.207512527888	0
1	1206	12675.612868829051	0
1	1210	12748.083340195054	0
1	1213	12814.097732136209	0
1	1216	12911.707185056671	0
1	1219	12945.420355911235	0
1	1221	12961.213993653252	0
1	1224	12963.121222932316	0
1	1228	13038.755554493768	0
1	1230	13044.140120935547	0
1	1234	13068.0290871883	0
1	1236	13079.044535429018	0
1	1239	13177.304636839634	0
1	1243	13264.243252703877	0
1	1246	13282.818886812299	0
1	1248	13308.707861859068	0
1	1250	13313.426979680411	0
1	1254	13317.321048865802	0
1	1258	13344.752107275013	0
1	1261	13357.044109933321	0
1	1264	13417.074295014296	0
1	1267	13523.28815232786	0
1	1269	13541.662676360396	0
1	1273	13586.275520854856	0
1	1276	13627.715802658508	0
1	1278	13636.284486319603	0
1	1281	13725.403655489775	0
1	1284	13740.78000690906	0
1	1287	13748.725991157551	0
1	1291	13794.956497660492	0
1	1294	13863.113577220813	0
1	1297	13911.904404332275	0
1	1300	13956.54684455089	0
1	1302	14005.866983312422	0
1	1306	14099.723584043427	0
1	1309	14110.291242069534	0
1	1311	14130.248717516755	0
1	1313	14132.691692450787	0
1	1315	14134.403123721516	0
1	1319	14155.41986825601	0
1	1324	14176.665261817277	0
1	1326	14194.903772568573	0
1	1329	14218.25491622964	0
1	1333	14308.146963689048	0
1	1336	14431.689601743001	0
1	1339	14486.332406518162	0
1	1342	14492.011531173469	0
1	1344	14515.215307617207	0
1	1346	14523.031472404004	0
1	1350	14546.201105826865	0
1	1352	14574.373818714434	0
1	1356	14600.321559503946	0
1	1358	14609.608378978527	0
1	1361	14616.133899043093	0
1	1366	14717.245882295784	0
1	1368	14732.234656006572	0
1	1371	14745.664532500545	0
1	1374	14752.910016037816	0
1	1378	14797.534316611709	0
1	1381	14836.473026127522	0
1	1384	14880.27788084969	0
1	1386	14887.524230012919	0
1	1388	14890.277274877536	0
1	1391	14912.698379220854	0
1	1394	14924.520168665211	0
1	1399	14983.080513406282	0
1	1402	15018.091613079917	0
1	1404	15039.449444935291	0
1	1406	15066.557866882385	0
1	1411	15130.030043785545	0
1	1413	15151.837764864042	0
1	1417	15212.749855022762	0
1	1420	15240.304047002287	0
1	1423	15263.984267471787	0
1	1425	15266.147814209392	0
1	1428	15284.894484766925	0
1	1432	15314.264161066094	0
1	1435	15361.696680852637	0
1	1437	15372.498471073052	0
1	1440	15425.801289116007	0
1	1444	15526.239022199966	0
1	1446	15531.199875116945	0
1	1450	15556.750625119676	0
1	1453	15646.043601493515	0
1	1456	15719.81355062541	0
1	1459	15739.337822614977	0
1	1461	15757.325264844288	0
1	1463	15770.921214833589	0
1	1467	15823.550335396297	0
1	1471	15915.548679195263	0
1	1473	15927.78538751593	0
1	1477	16041.009319369884	0
1	1480	16083.421098041594	0
1	1482	16095.219280630336	0
1	1485	16097.842724394719	0
1	1487	16100.171068508795	0
1	1490	16109.380548916803	0
1	1494	16132.689631180689	0
1	1498	16198.406165435447	0
1	1500	16200.529505012493	0
1	1503	16222.078756353879	0
1	1506	16243.159255921867	0
1	1510	16281.553986480562	0
1	1512	16283.033837116511	0
1	1516	16329.776960301327	0
1	1519	16365.902498512062	0
1	1521	16368.652695434808	0
1	1525	16406.120439475952	0
1	1527	16418.009427968535	0
1	1530	16443.391672108376	0
1	1533	16463.191291539904	0
1	1535	16472.19004663546	0
1	1540	16531.467639022378	0
1	1543	16562.749956153911	0
1	1545	16589.496254579624	0
1	1548	16640.853389674001	0
1	1552	16653.424470847564	0
1	1555	16704.834099505194	0
1	1557	16711.808484620692	0
1	1559	16726.915489242469	0
1	1564	16786.462484220213	0
1	1567	16827.979932837142	0
1	1570	16869.256011521468	0
1	1573	16892.815070460786	0
1	1575	16897.367349349489	0
1	1577	16905.371462185459	0
1	1582	16946.540066218493	0
1	1585	16963.609686139621	0
1	1588	17064.210390181392	0
1	1591	17105.829399976701	0
1	1593	17107.35030551922	0
1	1597	17195.265255384849	0
1	1599	17208.218254234674	0
1	1601	17213.119097443932	0
1	1606	17286.582115383025	0
1	1608	17287.837268191894	0
1	1610	17295.168799762872	0
1	1614	17310.389719991664	0
1	1616	17311.599730471121	0
1	1621	17343.897165663983	0
1	1623	17372.113548565257	0
1	1626	17382.405459066407	0
1	1629	17393.312799058739	0
1	1631	17402.678096490598	0
1	1635	17428.797309400157	0
1	1637	17430.78197728235	0
1	1641	17473.758005264976	0
1	1644	17507.34478948978	0
1	1646	17520.195648642622	0
1	1650	17532.192622961717	0
1	1652	17540.737894646873	0
1	1654	17543.501930164864	0
1	1660	17602.773113034422	0
1	1662	17617.528619185158	0
1	1665	17633.398193065353	0
1	1669	17709.44698261407	0
1	1671	17742.819820326667	0
1	1675	17785.658531653509	0
1	1678	17819.968018863543	0
1	1680	17833.52166351196	0
1	1684	17847.833866683319	0
1	1687	17895.535827527146	0
1	1690	17926.451911690974	0
1	1693	17993.787771216534	0
1	1695	17998.398986722723	0
1	1698	18030.518036436147	0
1	1700	18067.984238838829	0
1	1705	18109.537236652031	0
1	1708	18125.73858463192	0
1	1710	18152.01099948709	0
1	1713	18180.783224734618	0
1	1717	18225.57447820235	0
1	1719	18244.779709086833	0
1	1722	18289.910806488143	0
1	1724	18291.376433926833	0
1	1728	18326.349333538215	0
1	1731	18336.907617042461	0
1	1733	18340.851673724569	0
1	1735	18345.8671649489	0
1	1740	18372.259944525152	0
1	1744	18415.29087290173	0
1	1746	18425.178298137007	0
1	1748	18441.589786471788	0
1	1751	18456.757182569322	0
1	1756	18490.786910238542	0
1	1758	18492.545606788488	0
1	1762	18528.278682196622	0
1	1764	18534.936220578811	0
1	1768	18689.505396209713	0
1	1770	18693.653517385044	0
1	1773	18703.872030572734	0
1	1775	18712.504105570256	0
1	1777	18722.228413821415	0
1	1782	18756.273329245113	0
1	1785	18775.867737860147	0
1	1787	18784.610237977724	0
1	1789	18786.984322818483	0
1	1795	18812.214452703926	0
1	1797	18828.941922782324	0
1	1801	18874.43853611384	0
1	1804	19007.743414906156	0
1	1807	19012.234952245979	0
1	1810	19051.188460702815	0
1	1813	19083.616950149117	0
1	1815	19111.935744412308	0
1	1818	19116.191647149662	0
1	1820	19126.773139397107	0
1	1823	19167.114340992037	0
1	1827	19196.091003352631	0
1	1830	19215.161897845315	0
1	1834	19234.970095207052	0
1	1836	19250.72902313206	0
1	1838	19259.700868911292	0
1	1841	19260.839901822505	0
1	1845	19357.04260714763	0
1	1849	19378.021564550331	0
1	1852	19432.156411595445	0
1	1855	19461.245281292609	0
1	1857	19471.303310167903	0
1	1861	19642.236216214818	0
1	1863	19646.266662162625	0
1	1866	19652.088311103955	0
1	1869	19663.461730161123	0
1	1873	19708.026086598406	0
1	1875	19768.877445829402	0
1	1879	19804.355097803468	0
1	1882	19878.864320924266	0
1	1884	19887.545386677694	0
1	1887	19892.343175619162	0
1	1891	19944.371670959188	0
1	1893	19984.869782292339	0
1	1895	19989.848232375507	0
1	1899	20008.052180536714	0
1	1903	20034.619746008955	0
1	1905	20044.699993029686	0
1	1909	20096.030263902343	0
1	1912	20124.61513455532	0
1	1915	20165.278181381831	0
1	1917	20172.093085739902	0
1	1921	20215.78184851802	0
1	1924	20273.406673068516	0
1	1927	20279.860014034576	0
1	1930	20352.143062038692	0
1	1933	20362.679492878739	0
1	1935	20381.815553508897	0
1	1938	20413.353546369411	0
1	1940	20416.160677451183	0
1	1945	20440.829103981705	0
1	1947	20448.44997029333	0
1	1950	20452.720771014861	0
1	1952	20465.519417765604	0
1	1957	20542.121239696061	0
1	1960	20558.948552924869	0
1	1962	20559.615120634286	0
1	1964	20581.779900120252	0
1	1969	20691.621195953673	0
1	1972	20776.560280322695	0
1	1975	20796.119358137658	0
1	1978	20866.504882285213	0
1	1980	20878.253635281545	0
1	1982	20878.666537023517	0
1	1987	20943.629117776962	0
1	1990	20955.082291819557	0
1	1992	20960.556207640996	0
1	1995	20990.98458322706	0
1	1998	20995.294003261659	0
1	2000	21000.393939669297	0
1	2002	21001.438359457644	0
1	2005	21002.873443198386	0
1	2009	21016.01894517742	0
1	2013	21071.177481737984	0
1	2016	21071.898489012905	0
1	2019	21094.168096693894	0
1	2023	21175.62105972245	0
1	2026	21191.642459955597	0
1	2029	21333.708200036729	0
1	2031	21334.778364004312	0
1	2033	21341.57227282193	0
1	2037	21351.041035836699	0
1	2039	21358.778178222207	0
1	2043	21381.088248680779	0
1	2047	21412.743744882486	0
1	2049	21435.634435721094	0
1	2051	21442.162785662024	0
1	2056	21507.182450096863	0
1	2058	21548.016604341198	0
1	2062	21574.244197412783	0
1	2065	21646.988889980532	0
1	2068	21661.61430498769	0
1	2070	21664.369717692986	0
1	2072	21664.705564524769	0
1	2076	21671.874216538781	0
1	2078	21684.039187673168	0
1	2083	21723.652312313012	0
1	2086	21733.626984528545	0
1	2088	21738.506637789647	0
1	2091	21782.633026232519	0
1	2095	21859.106196506532	0
1	2098	22019.657767304816	0
1	2100	22023.549477914498	0
1	2103	22031.205000960485	0
1	2105	22034.260340350528	0
1	2108	22065.948744537559	0
1	2112	22102.60083350872	0
1	2115	22133.916545286863	0
1	2117	22137.719610664907	0
1	2120	22147.933033804791	0
1	2123	22149.219328700129	0
1	2126	22157.100443042753	0
1	2128	22159.527618303658	0
1	2132	22235.825802569098	0
1	2134	22240.759294542302	0
1	2136	22243.153756325751	0
1	2138	22247.978692264133	0
1	2140	22252.364451056223	0
1	2145	22269.544686290953	0
1	2149	22286.162508216983	0
1	2152	22305.529863829513	0
1	2157	22348.001062407054	0
1	2161	22438.199375390491	0
1	2164	22467.966312983636	0
1	2166	22469.011247244137	0
1	2169	22568.714172322621	0
1	2171	22572.446456252893	0
1	2176	22591.286608071804	0
1	2178	22597.829727068418	0
1	2180	22602.707749148431	0
1	2184	22652.211195862037	0
1	2187	22675.161724061811	0
1	2190	22697.199838052639	0
1	2192	22700.686785683685	0
1	2194	22707.897626762696	0
1	2200	22766.234390465401	0
1	2202	22770.079117992579	0
1	2204	22781.146550471251	0
1	2207	22813.689657142554	0
1	2212	22865.396685347807	0
1	2214	22885.365527784739	0
1	2218	22917.658165605325	0
1	2220	22944.700310411067	0
1	2224	23007.538732731428	0
1	2226	23046.225966023804	0
1	2228	23060.947215780061	0
1	2230	23061.587076070938	0
1	2233	23065.074757776756	0
1	2239	23181.963228120572	0
1	2241	23183.083203850451	0
1	2243	23187.701561542656	0
1	2248	23292.394702295956	0
1	2250	23302.550526222223	0
1	2252	23328.828727664615	0
1	2257	23428.651102020157	0
1	2260	23475.24473408996	0
1	2262	23501.586137952987	0
1	2265	23519.309613497509	0
1	2269	23568.640033709322	0
1	2272	23665.934163572407	0
1	2275	23712.878240985577	0
1	2277	23715.323745235623	0
1	2279	23722.456915037716	0
1	2281	23724.844145205743	0
1	2283	23728.450961595717	0
1	2287	23757.52306327528	0
1	2290	23761.200698744031	0
1	2293	23772.949383798527	0
1	2299	23828.371126270791	0
1	2302	23911.834786127281	0
1	2305	23977.883177520108	0
1	2307	23978.294966666582	0
1	2310	23996.603390206287	0
1	2314	24079.149254448848	0
1	2316	24083.777780994962	0
1	2319	24100.337496121544	0
1	2321	24102.389131829198	0
1	2325	24117.264756639931	0
1	2327	24127.671171047269	0
1	2332	24184.329388806426	0
1	2335	24217.103148467703	0
1	2337	24252.628899675468	0
1	2340	24253.926953711985	0
1	2343	24274.466635414843	0
1	2346	24300.31680247747	0
1	2348	24301.391097753057	0
1	2350	24304.028387968565	0
1	2355	24315.381255358837	0
1	2357	24322.288582049843	0
1	2359	24324.595418938664	0
1	2361	24338.160309205787	0
1	2366	24366.236827712537	0
1	2370	24384.985721239636	0
1	2374	24452.886829661714	0
1	2376	24463.556032145244	0
1	2378	24471.58595164382	0
1	2381	24475.009546652271	0
1	2385	24489.149636142957	0
1	2389	24561.962562784602	0
1	2392	24606.993653214626	0
1	2395	24699.291410023562	0
1	2398	24810.49138144537	0
1	2400	24830.605139413861	0
1	2404	24957.145718576672	0
1	2406	24962.451273693577	0
1	2410	25046.848427588152	0
1	2412	25072.194217852997	0
1	2416	25107.037675427303	0
1	2419	25131.893963683849	0
1	2422	25153.750964041356	0
1	2425	25234.189051803004	0
1	2427	25248.073135888075	0
1	2431	25328.932996385104	0
1	2433	25366.080518019694	0
1	2436	25374.465291765444	0
1	2440	25423.721098382439	0
1	2442	25433.234226693769	0
1	2446	25475.611002427071	0
1	2449	25661.121307473071	0
1	2452	25680.459423896477	0
1	2454	25684.345391892781	0
1	2457	25699.351174755254	0
1	2459	25701.817072735779	0
1	2461	25704.34992248429	0
1	2467	25767.086566709107	0
1	2469	25770.160458752406	0
1	2471	25793.014768177895	0
[...]
4	1997	20995.067414492295	0
4	2004	21002.014707718526	2
4	2007	21010.022968377548	2
4	2008	21011.066573644926	3
4	2011	21029.652127141689	1
4	2012	21069.031770463423	2
4	2015	21071.676354414539	1
4	2018	21084.47583823981	0
4	2021	21106.864699787186	1
4	2022	21111.033405589228	0
4	2025	21180.865718034654	0
4	2028	21286.295157630887	0
4	2035	21344.975273916218	0
4	2036	21350.604309700768	2
4	2041	21367.187685332397	2
4	2042	21368.320101511007	0
4	2045	21386.903091492922	0
4	2046	21404.150162960699	1
4	2053	21442.173864273664	2
4	2054	21463.89641642571	0
4	2055	21475.309614534026	1
4	2060	21552.243595936321	0
4	2061	21554.439583133792	1
4	2064	21579.778422521403	0
4	2067	21649.599723865694	0
4	2074	21665.222476990923	0
4	2075	21665.636272161328	2
4	2080	21684.62522378792	0
4	2081	21694.109661837484	2
4	2082	21701.407950591748	1
4	2085	21732.887890762705	0
4	2090	21751.630125404761	1
4	2093	21788.631948281373	1
4	2094	21851.526234684426	0
4	2097	21916.170028066793	0
4	2102	22024.740099358922	1
4	2107	22041.026307387803	1
4	2110	22082.405191803183	0
4	2111	22085.964827591239	1
4	2114	22120.466137752352	2
4	2119	22145.207255399447	0
4	2122	22147.977885226118	0
4	2125	22156.738169836653	0
4	2130	22171.141693779086	0
4	2131	22175.524367084941	1
4	2142	22263.8467131406	1
4	2143	22265.916597670203	2
4	2144	22266.425425835853	3
4	2147	22276.94060587511	4
4	2148	22281.366600787874	5
4	2151	22288.56434809576	2
4	2154	22311.148246248182	2
4	2155	22311.153419963068	6
4	2156	22332.584622436639	1
4	2159	22355.981050112911	1
4	2160	22396.250756967691	0
4	2163	22441.598544195855	0
4	2168	22491.161194112907	1
4	2173	22572.676519177021	2
4	2174	22579.883439019314	0
4	2175	22580.884215151077	1
4	2182	22606.9603258077	0
4	2183	22631.010378163553	1
4	2186	22656.650850969578	0
4	2189	22676.853761269107	2
4	2196	22710.901830043367	1
4	2197	22730.506163894803	3
4	2198	22737.033913600106	0
4	2199	22764.77901045736	2
4	2206	22792.903476266061	1
4	2209	22823.929341853196	1
4	2210	22862.344136595417	2
4	2211	22862.53361372406	0
4	2216	22903.185525977497	1
4	2217	22903.909470027243	0
4	2222	22952.003056457567	1
4	2223	22975.986541809344	0
4	2232	23063.497867729976	1
4	2235	23066.268519165695	1
4	2236	23068.960519368967	3
4	2237	23080.564882900271	0
4	2238	23169.568043612326	2
4	2245	23192.321957681865	1
4	2246	23192.362351227068	0
4	2247	23255.295258370073	2
4	2254	23329.270850700815	2
4	2255	23339.975933520251	1
4	2256	23369.771998072902	0
4	2259	23435.263400580148	0
4	2264	23513.324158406276	0
4	2267	23545.691625896619	1
4	2268	23546.314014632962	0
4	2271	23585.504450261071	0
4	2274	23675.536160552693	0
4	2285	23749.508668204234	1
4	2286	23751.066733467348	0
4	2289	23760.163528274736	0
4	2292	23763.442397634406	3
4	2295	23774.952254719208	1
4	2296	23775.288007170575	2
4	2297	23791.884398239687	0
4	2298	23808.107478855471	4
4	2301	23843.157932136233	0
4	2304	23947.725264567552	0
4	2309	23996.576554964418	1
4	2312	24022.857226628662	0
4	2313	24024.37249437594	1
4	2318	24095.18844501318	1
4	2323	24113.090036728977	2
4	2324	24115.121058752252	0
4	2329	24145.640181810718	1
4	2330	24150.154244885441	2
4	2331	24176.110570523725	0
4	2334	24198.719021012017	0
4	2339	24253.311433721638	0
4	2342	24264.254982508913	1
4	2345	24275.294784333887	0
4	2352	24305.305883065241	2
4	2353	24308.239351532656	0
4	2354	24309.054548278076	1
4	2363	24346.630879321591	1
4	2364	24356.754561214949	0
4	2365	24364.988397561421	3
4	2368	24369.375197179939	0
4	2369	24373.41030257207	2
4	2372	24392.542956158398	4
4	2373	24393.819800477667	0
4	2380	24474.813185180068	1
4	2383	24478.889049151927	0
4	2384	24481.205208931736	1
4	2387	24529.591862568459	2
4	2388	24540.103398869103	0
4	2391	24567.627862780051	0
4	2394	24610.720169002786	0
4	2397	24793.22148707866	0
4	2402	24832.422467545517	1
4	2403	24836.063663956628	0
4	2408	24967.640874573482	0
4	2409	24968.40112439904	1
4	2414	25087.118403663145	0
4	2415	25091.883863759041	1
4	2418	25109.60503276639	0
4	2421	25147.69156220327	0
4	2424	25167.332438789548	0
4	2429	25259.346057011537	1
4	2430	25324.188045534351	0
4	2435	25368.943271678293	1
4	2438	25374.641058630334	0
4	2439	25410.558695784733	1
4	2444	25434.311501929654	0
4	2445	25447.635972875839	1
4	2448	25513.091400399505	0
4	2451	25679.748352720481	0
4	2456	25685.874834137593	0
4	2463	25708.843333094334	0
4	2464	25709.516915763685	3
4	2465	25712.784556074444	2
4	2466	25731.00724689287	1
4	2473	25799.178304946396	2
4	2474	25834.03247741309	0
4	2475	25845.62285338695	1
4	2478	25941.87421270741	0
4	2481	26031.664196494919	0
4	2484	26111.133816440183	0
4	2487	26145.462361513587	0
4	2490	26165.869343372813	0
4	2493	26199.516605234967	0
4	2498	26208.235674696754	1
4	2503	26230.172739422601	2
4	2504	26243.309544213093	1
4	2505	26283.774835150245	0
4	2514	26372.37526825023	0
4	2515	26375.126877260768	2
4	2518	26389.228054666572	3
4	2519	26393.118048801582	1
4	2520	26429.603140434084	0
4	2525	26460.011699926449	0
4	2526	26485.469432348895	1
4	2529	26525.337072024259	0
4	2534	26608.183857678806	0
4	2535	26635.111820742445	1
4	2538	26699.683727224926	0
4	2543	26736.715134970071	0
4	2548	26780.129333621751	1
4	2549	26818.074708528512	2
4	2550	26841.325229989609	0
4	2553	26899.57308349373	0
4	2556	26904.84610222862	0
4	2561	27018.218281177312	0
4	2562	27055.69610942943	1
4	2565	27081.176930815177	0
4	2570	27100.650068094585	0
4	2577	27138.25963511646	0
4	2578	27139.009419752799	3
4	2579	27154.079518209448	1
4	2582	27157.079657006344	2
4	2585	27172.465289957192	0
4	2586	27182.866220001228	1
4	2589	27211.892504741783	0
4	2592	27263.892945023993	0
4	2595	27370.318725885606	0
4	2598	27392.978192981009	0
4	2601	27444.236717458092	0
4	2604	27491.266708490916	0
4	2609	27570.171337765387	1
4	2610	27578.319363635894	0
4	2615	27608.880926094453	1
4	2616	27629.348482064014	0
4	2621	27671.636118669938	1
4	2624	27673.965143078998	0
4	2625	27688.775321679001	1
4	2628	27721.508934750574	0
4	2631	27739.973027241063	0
4	2636	27777.337762990316	0
4	2637	27788.745719980998	1
4	2640	27841.218721620851	0
4	2643	27848.014345549453	0
4	2650	27919.422889036895	0
4	2653	27944.09902864364	2
4	2658	27979.984331978213	2
4	2661	27998.607238837888	2
4	2662	28001.056389564171	3
4	2667	28023.288545740513	3
4	2668	28026.273476372683	1
4	2671	28048.136134670535	2
4	2672	28052.054568376087	0
4	2673	28090.117111713382	1
4	2676	28092.461707100561	0
4	2679	28096.470301443641	0
4	2686	28123.431765061459	0
4	2689	28148.059443546956	0
4	2690	28156.361756869834	1
4	2691	28170.995799701089	2
4	2702	28222.932747614417	1
4	2703	28227.985835281332	2
4	2706	28252.268994323466	3
4	2707	28265.168710058899	4
4	2708	28278.380513376035	0
4	2711	28362.445349795826	1
4	2714	28417.684662460295	0
4	2715	28495.854485769766	1
4	2718	28515.142503900281	0
4	2723	28540.456343872444	0
4	2724	28554.84745996921	1
4	2727	28597.933486699213	0
4	2730	28691.022590622642	0
4	2733	28707.40813492845	0
4	2738	28756.276526539092	1
4	2739	28773.730569188021	0
4	2742	28830.598015627664	0
4	2745	28880.073192764964	0
4	2748	28977.356002121783	0
4	2751	28997.847142584464	0
4	2756	29042.311732506608	1
4	2761	29084.389772695544	2
4	2762	29099.966346236427	1
4	2765	29107.152034139542	0
4	2766	29108.846768295286	1
4	2769	29169.636337419528	0
4	2772	29194.478634800987	0
4	2775	29238.613563400342	0
4	2780	29332.51842937387	1
4	2781	29335.346008112823	0
4	2786	29351.730283325484	1
4	2791	29399.119561416453	2
4	2792	29400.559684541695	0
4	2793	29418.311342617314	1
4	2796	29472.21599303185	0
4	2801	29508.694159374793	1
4	2806	29522.056919778099	1
4	2807	29522.277511742498	2
4	2810	29565.792172289941	0
4	2811	29590.221540606787	1
4	2816	29636.444129354481	0
4	2819	29663.758170643943	1
4	2820	29668.845436967697	0
4	2825	29696.826873089432	0
4	2828	29712.802168351333	1
4	2829	29715.761994491624	0
4	2836	29799.852389360606	0
4	2837	29802.353662188715	2
4	2838	29808.40816482402	1
4	2843	29885.695426598307	1
4	2844	29889.076514158093	0
4	2847	29939.913924757539	0
4	2850	29986.706425419958	0
4	2857	30023.825397426705	1
4	2858	30028.780958064841	0
4	2865	30072.510140500764	3
4	2868	30088.888675730822	1
4	2869	30099.681705738035	0
4	2870	30103.176942630944	2
4	2875	30143.667594874704	1
4	2876	30143.702947120471	3
4	2879	30172.891944952967	1
4	2880	30244.93581911918	0
4	2883	30291.830414421602	0
4	2886	30330.368774222618	0
4	2889	30353.801534371224	0
4	2892	30391.730859502227	0
4	2895	30436.620941625054	0
4	2902	30467.591200983813	2
4	2903	30474.750162725339	1
4	2908	30491.895950164206	0
4	2909	30498.38873690636	2
4	2916	30553.812562313709	0
4	2917	30573.622592963327	3
4	2918	30584.555331382733	2
4	2919	30587.401473904431	1
4	2922	30678.431249092792	0
4	2929	30771.484157299858	2
4	2930	30789.145375810705	0
4	2931	30789.229198936191	1
4	2936	30922.670657426485	1
4	2937	30922.967070861466	0
4	2944	30966.299635044568	0
4	2945	30998.428811190185	1
4	2948	31027.796189631758	0
4	2949	31036.824455560847	2
4	2956	31091.715737449577	1
4	2957	31095.896212653955	0
4	2958	31137.594307959828	2
4	2961	31156.212368025875	0
4	2964	31163.259988162737	0
4	2969	31193.882629086794	1
4	2970	31198.441505592859	0
4	2979	31306.556936618107	2
4	2980	31308.10299846519	1
4	2981	31322.832323178492	3
4	2984	31366.871203958494	1
4	2987	31393.400792216694	0
4	2990	31408.530027136844	1
4	2991	31409.24475123355	0
4	2994	31466.219992815846	0
4	3001	31523.404250980993	0
4	3002	31536.035618828225	1
4	3007	31567.251189990475	1
4	3010	31583.90751028445	1
4	3011	31587.805986177496	2
4	3012	31592.112252230786	0
4	3017	31674.160880047695	0
4	3020	31682.906666400828	1
4	3021	31688.603323841765	0
4	3024	31759.461912146704	0
4	3027	31775.577591732455	0
4	3034	31866.971053637589	1
4	3035	31867.384842526266	2
4	3040	31887.067905263611	1
4	3041	31891.382059628539	2
4	3042	31905.060666620876	0
4	3047	31965.291840587522	1
4	3050	31986.25794022041	1
4	3051	32052.087265160447	0
4	3060	32089.597633143862	1
4	3061	32106.28932318152	2
4	3062	32110.643227988549	0
4	3063	32112.950550918406	3
4	3066	32204.521217748895	0
4	3071	32265.196620890755	0
4	3072	32268.158586143074	1
4	3077	32297.86816256609	1
4	3078	32298.252930867355	0
4	3089	32323.32995842545	2
4	3090	32326.549565568053	1
4	3091	32339.810738144539	4
4	3094	32349.627677012812	1
4	3099	32367.589506959379	2
4	3100	32378.847581273662	0
4	3105	32398.338133099768	3
4	3106	32411.974123527008	2
4	3107	32442.560082527627	0
4	3108	32451.772160559403	1
4	3111	32496.288464903217	0
4	3114	32501.065023122317	0
4	3121	32564.711212748838	0
4	3122	32571.386950592756	1
4	3125	32610.892521808415	0
4	3126	32628.482257848285	2
4	3129	32697.507983686878	0
4	3132	32729.016619134079	0
4	3137	32776.639614939348	1
4	3142	32784.705569982279	0
4	3143	32806.712992224255	2
4	3144	32812.546002404186	1
4	3147	32905.245662976009	0
4	3152	33083.335382698202	0
4	3153	33085.930757037274	1
4	3156	33109.420383381016	0
4	3163	33118.30243124331	0
4	3164	33124.194464444338	2
4	3169	33157.23410987342	0
4	3170	33160.850099583628	2
4	3171	33166.128475783304	1
4	3174	33227.891921020146	0
4	3179	33253.632265371353	1
4	3180	33265.612560539142	0
4	3183	33319.170260579094	0
4	3186	33356.024886938826	0
4	3189	33388.530896292924	0
4	3192	33416.690396286016	0
4	3195	33458.516933606181	0
4	3198	33572.703962541806	0
4	3205	33702.410489258136	1
4	3210	33719.834733757963	2
4	3211	33721.836199641983	0
4	3212	33724.082659498398	1
4	3213	33734.186702440411	3
4	3218	33769.518009734822	0
4	3223	33804.809059015063	1
4	3224	33809.363815925364	0
4	3225	33814.411414203697	2
4	3234	33878.058106543177	2
4	3235	33878.905387980228	0
4	3236	33888.965410273364	1
4	3237	33906.384801108696	3
4	3244	33933.749041418333	1
4	3245	33936.765672179743	0
4	3248	33948.734547529447	0
4	3249	33956.115292941837	2
4	3252	33978.837413681884	0
4	3257	34092.507259176089	0
4	3258	34098.779634828283	1
4	3265	34256.521850864226	1
4	3266	34267.526793370658	0
4	3267	34286.684976358755	2
4	3270	34307.000230917891	0
4	3275	34379.811882429389	0
4	3280	34407.290346249615	0
4	3281	34408.365173952673	1
4	3282	34430.650785282163	2
4	3289	34555.09192457358	0
4	3290	34570.232602311989	1
4	3293	34590.954078880816	0
4	3294	34596.438234512893	2
4	3297	34662.467257253013	0
4	3300	34679.799933625932	0
4	3303	34748.005366822052	0
4	3310	34824.724684223147	2
4	3311	34829.05477363862	1
4	3316	34842.674711859033	2
4	3317	34844.271173704779	0
4	3322	34859.457150879231	2
4	3323	34863.003515271496	0
4	3324	34875.948739432628	1
4	3327	34944.21164921757	0
4	3332	34988.68533344183	0
4	3333	35002.297445157295	1
4	3342	35071.48780218961	2
4	3343	35077.457618037017	3
4	3348	35099.716959852099	2
4	3351	35121.183588388489	2
4	3352	35130.90598826168	1
4	3353	35166.640010592539	3
4	3354	35168.162278434878	0
4	3357	35178.64395333142	0
4	3364	35214.272710802398	0
4	3365	35225.415288090771	1
4	3368	35273.8965510191	0
4	3371	35292.299594063956	0
4	3376	35322.360618425387	0
4	3379	35362.024204556253	1
4	3382	35366.629467519991	0
4	3385	35390.988068547993	0
4	3386	35396.928794685507	2
4	3387	35406.489274045333	1
4	3392	35462.464080907733	0
4	3393	35464.620272259246	1
4	3400	35488.443767659427	0
4	3401	35489.655861694404	1
4	3402	35508.908353845577	2
4	3405	35540.264822803907	0
4	3408	35623.641832934207	0
4	3411	35650.837339733053	0
4	3414	35743.738887255136	0
4	3417	35759.586608287308	0
4	3422	35786.252996522786	1
4	3425	35861.988747412762	1
4	3428	35909.533602857462	1
4	3431	35958.347336838294	1
4	3434	35964.177425309337	0
4	3435	35969.613973168215	1
4	3440	36025.89261208329	1
4	3441	36064.414738881505	0
4	3444	36257.616501285149	0
4	3447	36406.516151845661	0
4	3450	36490.84734823586	0
4	3455	36526.668205850134	1
4	3456	36579.744099976605	0
4	3463	36604.939307297312	1
4	3464	36615.953356364237	0
4	3465	36616.2041860668	2
4	3468	36675.393934645779	0
4	3471	36693.405804867969	0
4	3476	36734.87150475285	1
4	3481	36818.055198491337	1
4	3482	36828.141287369424	0
4	3487	36872.482980987713	0
4	3488	36881.367260113849	2
4	3489	36900.967892180421	1
4	3492	36977.666726861556	0
4	3497	37005.721091506926	1
4	3500	37015.492343077901	1
4	3501	37020.851721851028	0
4	3508	37056.203091660626	0
4	3509	37058.553936940563	2
4	3510	37066.213472447917	1
4	3515	37132.191597390185	1
4	3520	37153.73180352775	2
4	3525	37182.926445963203	0
4	3526	37191.176059253076	1
4	3529	37195.988485293926	3
4	3530	37202.890660128948	2
4	3533	37216.811548390416	1
4	3534	37221.051489072115	0
4	3537	37231.54239852453	0
4	3540	37306.8456263574	0
4	3545	37364.785757157248	1
4	3548	37413.40083092885	0
4	3551	37438.315517515334	0
4	3554	37500.02401996686	0
4	3555	37526.903651450856	1
4	3562	37586.601813664323	2
4	3565	37606.879430016997	2
4	3566	37627.255890821135	0
4	3567	37631.31196645917	1
4	3576	37711.092548826887	1
4	3577	37723.572399433823	2
4	3578	37726.787205936427	0
4	3581	37769.444656528672	3
4	3584	37800.603361798865	1
4	3587	37821.873190997072	1
4	3588	37846.148384128186	0
4	3593	37920.8221973186	0
4	3594	37940.175006337479	1
4	3599	38025.042973653032	0
4	3602	38038.08274821513	0
4	3605	38046.575481693785	1
4	3606	38047.607460479875	0
4	3611	38074.193085646511	0
4	3612	38084.755460967817	1
4	3617	38120.678657813392	0
4	3618	38140.233554158129	1
4	3625	38164.097978858875	0
4	3626	38170.020352392172	1
4	3627	38180.818738886092	2
4	3630	38195.244216094962	0
4	3637	38220.165543431308	0
4	3638	38229.795010646713	1
4	3641	38249.715405976606	2
4	3642	38253.643937923851	0
4	3645	38286.257326954808	0
4	3648	38351.871045882969	0
4	3655	38453.095506575269	2
4	3658	38468.523252097475	1
4	3659	38471.309813345941	2
4	3662	38512.631453364501	0
4	3665	38527.77189456251	0
4	3668	38550.67492160138	0
4	3671	38555.951853129507	1
4	3672	38564.290195203148	0
4	3677	38616.099003657622	1
4	3680	38647.371307341205	0
4	3693	38700.525051833651	4
4	3694	38705.80055056886	0
4	3695	38706.720916616957	6
4	3696	38712.46114971229	1
4	3697	38714.228928453358	5
4	3704	38741.924360380986	2
4	3705	38743.798350143932	3
4	3706	38765.751952638301	0
4	3707	38766.313877211084	4
4	3708	38773.338770032301	1
4	3713	38799.016040037999	1
4	3714	38803.92375820666	0
4	3717	38946.294689010228	0
4	3720	38951.748973661014	0
4	3725	38976.496629645395	0
4	3726	39002.221890177952	1
4	3733	39030.554586429221	1
4	3734	39041.457909808246	2
4	3737	39054.243295403676	1
4	3740	39060.224555197095	0
4	3741	39071.390333488643	1
4	3744	39180.15199845384	0
4	3747	39254.315178473948	0
4	3752	39348.305334456382	0
4	3755	39370.656513097622	0
4	3758	39384.080916982378	0
4	3759	39389.467599249253	1
4	3762	39401.753977028361	0
4	3769	39512.186593996752	2
4	3774	39516.672437524308	0
4	3775	39519.913933598129	1
4	3778	39537.204859210167	2
4	3781	39541.880457011374	1
4	3784	39565.09067028386	1
4	3789	39581.967762740652	2
4	3790	39593.122065521234	3
4	3791	39601.466905098124	1
4	3796	39657.294690578281	2
4	3797	39683.534725269639	0
4	3802	39709.312369435846	1
4	3803	39734.946195906111	0
4	3804	39736.186701954223	2
4	3807	39776.087442090597	0
4	3810	39788.793112679095	0
4	3813	39811.35753095286	0
4	3816	39880.400223472021	0
4	3819	39909.415153210055	0
4	3822	39940.434127546241	0
4	3825	40010.804808684618	0
4	3832	40072.810833299048	2
4	3835	40097.67928810293	2
4	3836	40120.004127677443	0
4	3843	40130.491170263921	1
4	3844	40134.605463226244	0
4	3849	40149.368140680744	2
4	3854	40156.557176589129	3
4	3855	40158.775121351119	2
4	3858	40167.888461360865	0
4	3859	40170.907327769621	4
4	3860	40172.156266260235	2
4	3861	40178.02517913998	1
4	3864	40207.201748448245	0
4	3869	40278.514691644306	1
4	3870	40309.71932601447	0
4	3873	40417.288230056214	0
4	3876	40424.014242683845	0
4	3883	40564.641064455075	2
4	3884	40577.351492356213	1
4	3885	40594.40321347347	0
4	3888	40620.276838993519	0
4	3891	40640.206158301885	0
4	3896	40671.557815925201	0
4	3899	40692.855711757003	1
4	3900	40704.001556695872	0
4	3903	40719.406414070041	0
4	3908	40771.445332158187	0
4	3911	40812.085412272363	1
4	3914	40832.927056012687	0
4	3915	40835.935200538317	1
4	3920	40985.040391917924	1
4	3921	40989.108698079138	0
4	3924	41061.737066091675	0
4	3929	41133.76399168005	1
4	3932	41148.043947492587	1
4	3935	41169.865345309387	1
4	3940	41214.985689840268	1
4	3943	41231.785103275782	0
4	3946	41242.562103019909	0
4	3951	41263.258182998575	1
4	3960	41326.824630243681	6
4	3961	41326.998632367647	0
4	3962	41333.141117059511	4
4	3965	41346.357880035775	1
4	3966	41353.568956171558	2
4	3967	41380.983897400645	0
4	3968	41429.728801886106	3
4	3971	41432.111079781235	0
4	3974	41438.021948501347	5
4	3977	41448.114982180378	1
4	3978	41452.404350383504	0
4	3983	41530.475798377374	1
4	3984	41534.922932789915	0
4	3991	41640.67105421918	0
4	3992	41669.835105208888	1
4	3995	41685.052680791393	0
4	3998	41693.124954682949	2
4	4001	41706.721967563938	1
4	4004	41743.816434390238	0
4	4005	41748.959031545881	1
4	4012	42007.512939349714	1
4	4015	42028.614303189576	1
4	4016	42050.038521617789	2
4	4017	42075.861836648245	0
4	4024	42208.480331251647	0
4	4025	42224.322288639524	1
4	4032	42266.671630318902	3
4	4033	42268.858732990711	2
4	4036	42292.430495916134	1
4	4039	42325.35104660745	0
4	4042	42384.907627224503	1
4	4043	42386.925485440113	2
4	4044	42387.076958040395	0
4	4049	42429.052928073108	0
4	4052	42436.249986283706	0
4	4055	42454.701401531527	1
4	4058	42467.940346308331	0
4	4059	42504.374841477739	1
4	4066	42586.190263832937	1
4	4067	42588.53911442908	2
4	4068	42604.378317683888	0
4	4071	42619.105078125654	0
4	4074	42665.304113339488	0
4	4079	42709.86317050707	1
4	4080	42716.127615982507	0
4	4085	42747.435426627943	0
4	4086	42755.437896440135	1
4	4091	42871.3308700802	1
4	4094	42884.688171819689	0
4	4103	42950.200867005354	4
4	4104	42950.564945677847	0
4	4105	42953.831698462217	3
4	4108	42957.845374044624	2
4	4111	42974.58328955285	0
4	4112	42984.202342300095	2
4	4113	42984.984527672373	1
4	4116	42989.14029166595	0
4	4119	43043.812702739256	0
4	4122	43054.45154418723	0
4	4125	43065.424978230959	0
4	4128	43111.814122193713	0
4	4135	43139.037707204109	2
4	4136	43142.117296444835	0
4	4137	43149.435672196379	1
4	4146	43193.249011295467	0
4	4147	43194.596388993236	2

