file 21832413 1513246168                                        
version 2
run General-0-20171214-11:09:23-6952
attr configname General
attr datetime 20171214-11:09:23
attr experiment General
attr inifile carrefour.ini
attr iterationvars ""
attr iterationvarsf ""
attr measurement ""
attr network Carrefour
attr processid 6952
attr repetition 0
attr replication #0
attr resultdir results
attr runnumber 0
attr seedset 0
param **.lambda 21
param **.numeroCasse 30
param **.mu 400
param **.tipoSimulazione 0

vector 0 Carrefour.coda InterrivalStat:vector ETV
attr source Interarrivals
attr title "InterArrivals, vector"
vector 1 Carrefour.coda QueueLenghtStat:vector ETV
attr source QueueLenght
attr title "Queue Lenght, vector"
vector 2 Carrefour.coda QueuingStat:vector ETV
attr source Queuing
attr title "Time in Queue, vector"
0	794 1445978 1 98682 7 689073.351262741699 32768 0.001051207772 228.08798575324 689073.35126274 28977256.925297
1	1446772 1003274 1 98682 7 689073.351262741699 32768 0 8 543 1617
2	2450046 1008748 1 98682 7 689073.351262741699 32768 0 98.386649833917 11746.557727736 559602.18128023
0	3458794 1505012 98686 197285 689084.577167619343 1372797.772636699968 32768 0.002704564476 229.82121224068 683724.42137396 28608920.855302
1	4963806 1062363 98686 197285 689084.577167619343 1372797.772636699968 32768 0 6 306 854
2	6026169 1066404 98686 197285 689084.577167619343 1372797.772636699968 32768 0 91.991945733175 6941.8328942402 280197.92072431
0	7092573 1520246 197287 296090 1372797.832965250535 2054537.102169382199 32768 0.000166901818 246.79801896325 681739.32953268 28196944.642649
1	8612819 1077649 197287 296090 1372797.832965250535 2054537.102169382199 32768 0 9 770 2972
2	9690468 1084505 197287 296090 1372797.832965250535 2054537.102169382199 32768 0 147.04125279398 15146.259761871 815358.05599055
0	10774973 1520619 296092 394876 2054545.221304167521 2748645.967514792062 32768 0.000115068479 258.25985677933 694108.86534541 29430447.738736
1	12295592 1077684 296092 394876 2054545.221304167521 2748645.967514792062 32768 0 8 727 2359
2	13373276 1084241 296092 394876 2054545.221304167521 2748645.967514792062 32768 0 109.06475399227 15216.464030434 834102.39846915
0	14457517 1520197 394883 493611 2748688.225702310389 3431528.42292035774 32768 0.000121400344 245.60980864337 682882.45540556 28409402.072358
1	15977714 1077610 394883 493611 2748688.225702310389 3431528.42292035774 32768 0 9 698 2858
2	17055324 1083542 394883 493611 2748688.225702310389 3431528.42292035774 32768 0 198.99408349828 15470.999952227 1141209.3507775
0	18138866 1520487 493614 592276 3431584.254917430691 4119382.586567948291 32768 0.001552328564 225.57683049611 687854.16364759 28720228.308139
1	19659353 1077603 493614 592276 3431584.254917430691 4119382.586567948291 32768 0 8 555 2003
2	20736956 1082512 493614 592276 3431584.254917430691 4119382.586567948291 32768 0 169.89467974779 12499.883219893 807852.36148019
0	21819468 5278 592279 592638 4119389.708901041233 4121553.433042199947 114 0.190248456281 94.996481674103 2170.8464742517 85090.121279707
1	21824746 3744 592279 592638 4119389.708901041233 4121553.433042199947 114 0 2 6 10
2	21828490 3921 592279 592638 4119389.708901041233 4121553.433042199947 114 0 55.282816428543 252.00147192824 8570.2219851138

