version 2
run General-0-20180202-18:51:44-8176
attr configname General
attr datetime 20180202-18:51:44
attr experiment General
attr inifile carrefour.ini
attr iterationvars $0=4
attr iterationvarsf 4-
attr measurement $0=4
attr network Carrefour
attr processid 8176
attr repetition 0
attr replication #0
attr resultdir results
attr runnumber 0
attr seedset 0
param **.lambda 4
param **.numeroCasse 10
param **.mu 30
param **.tipoSimulazione 0
param **.delay 0
param **.ServiceType 0

vector 0 Carrefour.coda 1_Lambda:vector ETV
attr source Interarrivals
attr title "1/lambda, vector"
vector 1 Carrefour.coda E_Nq:vector ETV
attr source QueueLenght
attr title "E[Nq], vector"
vector 2 Carrefour.coda E_W:vector ETV
attr source Queuing
attr title "E[W], vector"
vector 3 Carrefour.decisore E_R:vector ETV
attr source TotalTime
attr title "E[R], vector"
vector 4 Carrefour.decisore ActiveTillStat:vector ETV
attr source ActiveTill
attr title "Active Till, vector"
0	1	7	7
0	3	7.398296198168	0.398296198168
0	5	12.973934574812	5.575638376644
0	7	22.731585605638	9.757651030826
0	10	24.009515413208	1.27792980757
0	14	30.503979775824	6.494464362616
0	16	33.106191722674	2.60221194685
0	18	34.424137787686	1.317946065012
0	20	41.461445121529	7.037307333843
0	22	43.97993159625	2.518486474721
0	24	47.147977321847	3.168045725597
0	26	47.509191833931	0.361214512084
0	30	51.290561744473	3.781369910542
0	32	52.60314084677	1.312579102297
0	34	54.564233104229	1.961092257459
0	36	58.072536706575	3.508303602346
0	40	63.697203171222	5.624666464647
0	47	68.804363550694	5.107160379472
0	50	70.976779566138	2.172416015444
0	55	81.082087947353	10.105308381215
0	57	81.198472896121	0.116384948768
0	61	94.225853697899	13.027380801778
0	64	97.6119996493	3.386145951401
0	66	102.702284683571	5.090285034271
0	68	105.791765824702	3.089481141131
0	71	107.638735693607	1.846969868905
0	76	122.957536378156	15.318800684549
0	79	139.586133646868	16.628597268712
0	82	141.960857341247	2.374723694379
0	84	142.751844084205	0.790986742958
0	86	145.54492908015	2.793084995945
0	92	155.653298880231	10.108369800081
0	95	161.371494218336	5.718195338105
0	97	162.214260510907	0.842766292571
0	99	163.071565019801	0.857304508894
0	102	164.819218795345	1.747653775544
0	106	172.137513261023	7.318294465678
0	108	172.390156265783	0.25264300476
0	111	175.365204258786	2.975047993003
0	113	179.673169090143	4.307964831357
0	116	185.365206851764	5.692037761621
0	118	187.085891673575	1.720684821811
0	120	187.842445310305	0.75655363673
0	124	191.184501467973	3.342056157668
0	126	193.329652476983	2.14515100901
0	128	194.208730077631	0.879077600648
0	129	198.68777847964	4.479048402009
0	133	200.392657577999	1.704879098359
0	134	200.484260256059	0.09160267806
0	145	207.168255762445	6.683995506386
0	149	209.566842922328	2.398587159883
0	151	209.951878106341	0.385035184013
0	157	230.255770287899	20.303892181558
0	159	232.768429616103	2.512659328204
0	163	240.194077370449	7.425647754346
0	165	243.015492711045	2.821415340596
0	167	244.39181485095	1.376322139905
0	170	246.249150125887	1.857335274937
0	172	246.70154315083	0.452393024943
0	174	247.382535410659	0.680992259829
0	175	247.4388540272	0.056318616541
0	183	253.706081592205	6.267227565005
0	186	256.586234621393	2.880153029188
0	194	266.835683805986	10.249449184593
0	199	276.301714826141	9.466031020155
0	201	279.60275303187	3.301038205729
0	204	286.843278813169	7.240525781299
0	207	288.018146033515	1.174867220346
0	209	291.145335939514	3.127189905999
0	212	292.399038589921	1.253702650407
0	215	295.98558874232	3.586550152399
0	217	296.556784038176	0.571195295856
0	221	300.815048054042	4.258264015866
0	224	314.697402986458	13.882354932416
0	226	314.825536456824	0.128133470366
0	228	315.026519218005	0.200982761181
0	230	316.118344236627	1.091825018622
0	233	319.520421680352	3.402077443725
0	235	326.845951413485	7.325529733133
0	237	327.091937048447	0.245985634962
0	239	327.766467370839	0.674530322392
0	240	329.813771448068	2.047304077229
0	241	330.341130290012	0.527358841944
0	242	332.927176211266	2.586045921254
0	246	334.476216293626	1.54904008236
0	250	338.113850815178	3.637634521552
0	251	339.565635476438	1.45178466126
0	252	345.16742967656	5.601794200122
0	262	351.433248461404	6.265818784844
0	269	352.688178080787	1.254929619383
0	273	353.786085089292	1.097907008505
0	277	355.522313237465	1.736228148173
0	278	357.602278975418	2.079965737953
0	279	363.657843582995	6.055564607577
0	286	367.732862993746	4.075019410751
0	296	379.395619088576	11.66275609483
0	300	381.334960291265	1.939341202689
0	301	384.685571309368	3.350611018103
0	308	387.360009039952	2.674437730584
0	309	388.899659970764	1.539650930812
0	321	402.21688146128	13.317221490516
0	324	408.039683986957	5.822802525677
0	327	413.709900993489	5.670217006532
0	329	414.826960273468	1.117059279979
0	332	420.713833979069	5.886873705601
0	335	423.541286823103	2.827452844034
0	340	436.167012319958	12.625725496855
0	342	436.842487859536	0.675475539578
0	344	437.77224252908	0.929754669544
0	349	442.463888538734	4.691646009654
0	351	445.955496978147	3.491608439413
0	354	449.385230409981	3.429733431834
0	357	456.532064837373	7.146834427392
0	359	463.315571251823	6.78350641445
0	362	465.501617180772	2.186045928949
0	364	467.934936246245	2.433319065473
0	368	469.40838037139	1.473444125145
0	372	474.851307679645	5.442927308255
0	376	481.124568160693	6.273260481048
0	377	481.487864528674	0.363296367981
0	384	489.295359117041	7.807494588367
0	389	494.730004780374	5.434645663333
0	393	497.690939266407	2.960934486033
0	396	499.835090373845	2.144151107438
0	402	506.55360169548	6.718511321635
0	404	507.027662048931	0.474060353451
0	406	507.068846356678	0.041184307747
0	408	510.268148443296	3.199302086618
0	410	510.370896495864	0.102748052568
0	413	522.865505501293	12.494609005429
0	415	524.268026259025	1.402520757732
0	416	524.837179552688	0.569153293663
0	417	525.985361776305	1.148182223617
0	421	526.707912191943	0.722550415638
0	428	533.278792695879	6.570880503936
0	429	534.881875223391	1.603082527512
0	436	538.96861135251	4.086736129119
0	437	539.320747118811	0.352135766301
0	444	548.677280994747	9.356533875936
0	448	553.010791919563	4.333510924816
0	452	555.715615146063	2.7048232265
0	459	561.054650992938	5.339035846875
0	463	563.490058883866	2.435407890928
0	467	564.996036539332	1.505977655466
0	472	568.2885888938	3.292552354468
0	475	570.555158252417	2.266569358617
0	478	571.351759183145	0.796600930728
0	482	573.67428652684	2.322527343695
0	488	582.414713408106	8.740426881266
0	490	582.642601439195	0.227888031089
0	492	584.936309669242	2.293708230047
0	494	590.06673945589	5.130429786648
0	498	592.320007803189	2.253268347299
0	500	594.743327171025	2.423319367836
0	504	600.114554847239	5.371227676214
0	507	603.752372389891	3.637817542652
0	510	615.134856507134	11.382484117243
0	512	616.098517848956	0.963661341822
0	514	616.251123606774	0.152605757818
0	516	618.817230568608	2.566106961834
0	517	619.401507112996	0.584276544388
0	524	625.565529842749	6.164022729753
0	528	630.872870459758	5.307340617009
0	529	631.009195961495	0.136325501737
0	533	634.825431289136	3.816235327641
0	542	641.916209261637	7.090777972501
0	544	643.267885296133	1.351676034496
0	547	664.546384924428	21.278499628295
0	551	672.174608276614	7.628223352186
0	554	675.37782169741	3.203213420796
0	556	678.01741329159	2.63959159418
0	558	679.531615923255	1.514202631665
0	563	684.265672752974	4.734056829719
0	566	688.202541678711	3.936868925737
0	570	694.58615303003	6.383611351319
0	573	697.417292636427	2.831139606397
0	575	698.08520234642	0.667909709993
0	578	699.13931883411	1.05411648769
0	585	715.165919389525	16.026600555415
0	587	720.053830592627	4.887911203102
0	593	732.03391362413	11.980083031503
0	595	733.219144249971	1.185230625841
0	597	735.933536503076	2.714392253105
0	601	740.175127659195	4.241591156119
0	606	746.789487304588	6.614359645393
0	608	746.999159548735	0.209672244147
0	611	752.305150637879	5.305991089144
0	614	753.875698105462	1.570547467583
0	618	761.843974103616	7.968275998154
0	620	768.364910458446	6.52093635483
0	622	769.179755439987	0.814844981541
0	625	771.811319051045	2.631563611058
0	629	775.620523093309	3.809204042264
0	631	778.497425012785	2.876901919476
0	633	780.923989381172	2.426564368387
0	635	781.233496065181	0.309506684009
0	637	781.737506249359	0.504010184178
0	639	782.148712197279	0.41120594792
0	642	782.750548575538	0.601836378259
0	645	787.97702757809	5.226479002552
0	647	788.006209863286	0.029182285196
0	655	795.122070685944	7.115860822658
0	658	798.954184861779	3.832114175835
0	662	808.160943328515	9.206758466736
0	665	812.296148635191	4.135205306676
0	667	812.542855516774	0.246706881583
0	671	817.487767314405	4.944911797631
0	673	818.17887468773	0.691107373325
0	676	824.649185645771	6.470310958041
0	678	828.897172819706	4.247987173935
0	680	830.457073918518	1.559901098812
0	682	832.435093578518	1.97801966
0	685	839.341167034043	6.906073455525
0	689	845.282226349211	5.941059315168
0	691	845.563265021974	0.281038672763
0	693	848.782865333182	3.219600311208
0	696	853.037024358055	4.254159024873
0	698	857.637513126054	4.600488767999
0	701	859.161959504022	1.524446377968
0	704	859.321182911535	0.159223407513
0	707	862.601804905497	3.280621993962
0	709	865.99151484358	3.389709938083
0	710	866.43401926535	0.44250442177
0	711	867.138359711996	0.704340446646
0	723	888.319452523695	21.181092811699
0	726	889.875049913439	1.555597389744
0	729	890.489168434208	0.614118520769
0	731	891.516897974051	1.027729539843
0	734	895.216925645655	3.700027671604
0	736	895.773279599895	0.55635395424
0	741	896.608539584194	0.835259984299
0	743	897.32893521236	0.720395628166
0	749	900.975794471602	3.646859259242
0	751	901.50518230425	0.529387832648
0	754	906.743910109995	5.238727805745
0	757	913.109460223	6.365550113005
0	759	914.085862920913	0.976402697913
0	764	924.811139537601	10.725276616688
0	770	945.146791534807	20.335651997206
0	773	948.267980320356	3.121188785549
0	775	949.241050741858	0.973070421502
0	777	949.824292045963	0.583241304105
0	780	951.094190689003	1.26989864304
0	782	954.711942257684	3.617751568681
0	785	955.523987001355	0.812044743671
0	788	962.517348192175	6.99336119082
0	794	967.039144037373	4.521795845198
0	798	974.940960129089	7.901816091716
0	800	975.126266948171	0.185306819082
0	802	982.925663824772	7.799396876601
0	807	988.612658174723	5.686994349951
0	809	989.977472521417	1.364814346694
0	811	991.252391733841	1.274919212424
0	813	991.524351268655	0.271959534814
0	815	992.014444072202	0.490092803547
0	822	1003.840398855248	11.825954783046
0	824	1004.508856067841	0.668457212593
0	826	1007.723563670373	3.214707602532
0	829	1011.058058170332	3.334494499959
0	831	1012.281917960635	1.223859790303
0	833	1013.410527391213	1.128609430578
0	835	1014.705389347705	1.294861956492
0	836	1018.990228361046	4.284839013341
0	840	1020.852924811191	1.862696450145
0	841	1021.146808126659	0.293883315468
0	842	1025.110232868401	3.963424741742
0	843	1026.546538988203	1.436306119802
0	850	1029.986673869298	3.440134881095
0	851	1031.964337424726	1.977663555428
0	855	1039.159153368234	7.194815943508
0	859	1040.577634229036	1.418480860802
0	866	1044.044116561672	3.466482332636
0	879	1053.502587040734	9.458470479062
0	885	1058.321432202331	4.818845161597
0	887	1059.356278992045	1.034846789714
0	891	1066.864691638284	7.508412646239
0	894	1069.020414469821	2.155722831537
0	898	1074.486740226854	5.466325757033
0	900	1075.290743909863	0.804003683009
0	902	1080.229989340981	4.939245431118
0	904	1081.660875672949	1.430886331968
0	905	1086.589408535655	4.928532862706
0	906	1087.131382957675	0.54197442202
0	916	1104.417060459637	17.285677501962
0	921	1107.080605272086	2.663544812449
0	926	1114.106465180811	7.025859908725
0	928	1119.551904024098	5.445438843287
0	930	1119.790711529354	0.238807505256
0	932	1121.542748233448	1.752036704094
0	939	1125.632596947192	4.089848713744
0	941	1125.842614893995	0.210017946803
0	945	1141.429160120189	15.586545226194
0	947	1142.486798330122	1.057638209933
0	950	1145.713788411057	3.226990080935
0	954	1152.689723049024	6.975934637967
0	957	1154.088352094456	1.398629045432
0	963	1166.864923785667	12.776571691211
0	967	1170.967565309829	4.102641524162
0	969	1178.374428444087	7.406863134258
0	971	1178.623951131493	0.249522687406
0	976	1183.023657072476	4.399705940983
0	979	1191.123677744375	8.100020671899
0	981	1197.740137082091	6.616459337716
0	984	1199.327516829927	1.587379747836
0	987	1212.6998724689	13.372355638973
0	990	1219.018365119235	6.318492650335
0	992	1220.922265676795	1.90390055756
0	994	1221.102972603783	0.180706926988
0	996	1223.315263917171	2.212291313388
0	998	1225.172281896046	1.857017978875
0	1000	1225.339584012812	0.167302116766
0	1008	1242.252313708654	16.912729695842
0	1010	1242.725542280314	0.47322857166
0	1012	1243.028123332549	0.302581052235
0	1014	1246.851094137665	3.822970805116
0	1016	1249.419247189809	2.568153052144
0	1019	1250.925253731102	1.506006541293
0	1023	1254.721838611349	3.796584880247
0	1026	1256.512352566643	1.790513955294
0	1028	1262.235225481543	5.7228729149
0	1030	1265.477542914664	3.242317433121
0	1032	1265.493559211577	0.016016296913
0	1033	1265.906400700706	0.412841489129
0	1040	1269.117001320525	3.210600619819
0	1041	1271.263479595698	2.146478275173
0	1042	1274.120370353199	2.856890757501
0	1043	1275.065266695535	0.944896342336
0	1044	1275.536304654501	0.471037958966
0	1048	1278.696686120602	3.160381466101
0	1052	1280.577345489628	1.880659369026
0	1053	1280.876081969572	0.298736479944
0	1060	1286.434329415115	5.558247445543
0	1061	1286.771522815278	0.337193400163
0	1062	1287.679863848645	0.908341033367
0	1063	1291.305018860251	3.625155011606
0	1064	1292.018169425664	0.713150565413
0	1065	1296.208655950739	4.190486525075
0	1069	1306.979000674258	10.770344723519
0	1082	1314.044151758094	7.065151083836
0	1083	1315.129949096134	1.08579733804
0	1090	1319.638378750779	4.508429654645
0	1091	1324.074560705962	4.436181955183
0	1107	1332.645803369675	8.571242663713
0	1108	1334.034805603548	1.389002233873
0	1115	1336.720297302565	2.685491699017
0	1116	1339.446915275119	2.726617972554
0	1120	1340.053226842481	0.606311567362
0	1121	1340.095944692246	0.042717849765
0	1122	1341.890343915094	1.794399222848
0	1126	1347.671835858994	5.7814919439
0	1127	1350.473135679554	2.80129982056
0	1131	1353.782355533489	3.309219853935
0	1132	1355.476369647353	1.694014113864
0	1136	1358.468824763667	2.992455116314
0	1146	1363.543645345413	5.074820581746
0	1153	1377.627503679192	14.083858333779
0	1160	1380.8638856275	3.236381948308
0	1161	1385.090405325261	4.226519697761
0	1162	1385.52924791238	0.438842587119
0	1169	1393.212963905767	7.683715993387
0	1179	1401.149866405639	7.936902499872
0	1183	1404.973254133546	3.823387727907
0	1193	1414.793417609586	9.82016347604
0	1194	1416.430998826279	1.637581216693
0	1201	1421.048171163122	4.617172336843
0	1205	1426.717285809369	5.669114646247
0	1206	1428.486966715366	1.769680905997
0	1222	1445.077705302587	16.590738587221
0	1224	1445.146194680743	0.068489378156
0	1228	1448.13736481486	2.991170134117
0	1230	1456.110522394459	7.973157579599
0	1232	1458.311919088318	2.201396693859
0	1234	1458.67630550959	0.364386421272
0	1236	1461.170540258455	2.494234748865
0	1239	1474.527931355398	13.357391096943
0	1241	1474.542034618858	0.01410326346
0	1243	1475.492818736938	0.95078411808
0	1244	1475.872026569957	0.379207833019
0	1245	1476.719558280161	0.847531710204
0	1246	1481.161618094797	4.442059814636
0	1250	1486.448277907129	5.286659812332
0	1254	1487.050773144938	0.602495237809
0	1255	1488.250270118998	1.19949697406
0	1262	1490.885204649523	2.634934530525
0	1263	1494.90040457187	4.015199922347
0	1273	1508.358643038829	13.458238466959
0	1277	1510.572038159153	2.213395120324
0	1281	1514.642640651142	4.070602491989
0	1288	1523.075761387931	8.433120736789
0	1298	1532.161145686785	9.085384298854
0	1302	1533.391982383669	1.230836696884
0	1304	1535.587767361553	2.195784977884
0	1307	1541.40579604358	5.818028682027
0	1309	1544.237854691388	2.832058647808
0	1311	1546.552723499748	2.31486880836
0	1314	1551.970693063521	5.417969563773
0	1317	1552.36841152354	0.397718460019
0	1323	1565.469838961712	13.101427438172
0	1325	1566.60400288478	1.134163923068
0	1328	1569.244312818257	2.640309933477
0	1330	1571.172985514487	1.92867269623
0	1332	1571.500450739001	0.327465224514
0	1334	1573.229426367152	1.728975628151
0	1339	1576.043776341981	2.814349974829
0	1341	1580.848081744655	4.804305402674
0	1345	1583.691765418486	2.843683673831
0	1349	1591.46160566111	7.769840242624
0	1356	1604.747906075036	13.286300413926
0	1361	1606.959671679915	2.211765604879
0	1366	1620.992058297651	14.032386617736
0	1368	1634.149556813733	13.157498516082
0	1371	1635.980970028422	1.831413214689
0	1373	1639.74339349429	3.762423465868
0	1375	1640.005338080922	0.261944586632
0	1377	1641.213080034834	1.207741953912
0	1379	1642.486719890095	1.273639855261
0	1382	1642.609664550211	0.122944660116
0	1384	1644.120191192333	1.510526642122
0	1389	1653.187472046071	9.067280853738
0	1393	1663.432380862526	10.244908816455
0	1399	1669.459725945352	6.027345082826
0	1401	1670.908246669912	1.44852072456
0	1404	1675.28191856881	4.373671898898
0	1407	1679.249149820368	3.967231251558
0	1409	1679.583523251386	0.334373431018
0	1413	1688.614881047773	9.031357796387
0	1415	1688.809801375778	0.194920328005
0	1417	1689.680824443231	0.871023067453
0	1419	1690.982711716909	1.301887273678
0	1424	1698.042005635667	7.059293918758
0	1427	1713.892774915608	15.850769279941
0	1431	1724.37119393395	10.478419018342
0	1433	1725.955114129692	1.583920195742
0	1436	1735.346530813506	9.391416683814
0	1438	1735.46323056153	0.116699748024
0	1441	1736.198205879941	0.734975318411
0	1444	1740.080523432453	3.882317552512
0	1446	1744.998107845867	4.917584413414
0	1448	1746.425730649092	1.427622803225
0	1450	1749.867310731972	3.44158008288
0	1453	1752.879727029468	3.012416297496
0	1456	1753.907941464841	1.028214435373
0	1458	1755.085207049338	1.177265584497
0	1459	1755.2548497806	0.169642731262
0	1467	1759.952787011415	4.697937230815
0	1472	1774.370620325682	14.417833314267
0	1476	1781.700097337393	7.329477011711
0	1478	1786.942242753319	5.242145415926
0	1480	1788.469700078538	1.527457325219
0	1485	1794.729547344547	6.259847266009
0	1487	1796.118473818957	1.38892647441
0	1489	1803.834042235976	7.715568417019
0	1491	1804.014593127852	0.180550891876
0	1497	1815.005482845968	10.990889718116
0	1501	1825.9195604349	10.914077588932
0	1503	1831.772593235159	5.853032800259
0	1506	1834.855595487023	3.083002251864
0	1508	1836.49392295289	1.638327465867
0	1511	1842.297878189837	5.803955236947
0	1515	1846.109747341574	3.811869151737
0	1518	1855.277559023555	9.167811681981
0	1522	1861.44875846605	6.171199442495
0	1524	1862.211923452449	0.763164986399
0	1527	1875.426310093563	13.214386641114
0	1529	1875.718527798244	0.292217704681
0	1531	1878.476276265722	2.757748467478
0	1533	1880.178584309657	1.702308043935
0	1540	1892.956809941587	12.77822563193
0	1542	1895.147297836444	2.190487894857
0	1544	1895.156917671017	0.009619834573
0	1546	1895.331965587336	0.175047916319
0	1548	1898.515560393319	3.183594805983
0	1550	1898.643779236978	0.128218843659
0	1551	1902.641150256899	3.997371019921
0	1560	1908.61480096673	5.973650709831
0	1562	1909.476291300552	0.861490333822
0	1565	1915.928862599146	6.452571298594
0	1572	1930.452627948948	14.523765349802
0	1574	1932.008850448609	1.556222499661
0	1579	1940.797733707809	8.7888832592
0	1581	1941.274607387662	0.476873679853
0	1583	1943.576606790493	2.301999402831
0	1586	1950.161348086585	6.584741296092
0	1588	1951.269123901892	1.107775815307
0	1591	1956.711892192764	5.442768290872
0	1594	1960.516970208058	3.805078015294
0	1596	1963.219736576955	2.702766368897
0	1598	1964.249869822223	1.030133245268
0	1600	1965.118922264776	0.869052442553
0	1606	1967.287443023928	2.168520759152
0	1608	1969.678472208654	2.391029184726
0	1612	1975.34622471662	5.667752507966
0	1616	1977.877696710186	2.531471993566
0	1618	1980.564219687139	2.686522976953
0	1620	1981.415066502317	0.850846815178
0	1623	1986.506234029953	5.091167527636
0	1626	1990.068148928572	3.561914898619
0	1628	1995.301361607795	5.233212679223
0	1629	1995.964865552236	0.663503944441
0	1637	2007.021531203949	11.056665651713
0	1641	2009.764173958605	2.742642754656
0	1643	2009.80632537508	0.042151416475
0	1647	2016.865945585792	7.059620210712
0	1652	2023.411146145233	6.545200559441
0	1654	2031.941731043757	8.530584898524
0	1658	2033.595165959885	1.653434916128
0	1661	2036.890888419811	3.295722459926
0	1663	2038.540695095632	1.649806675821
0	1665	2039.591581698128	1.050886602496
0	1669	2042.489742238592	2.898160540464
0	1671	2044.705992751542	2.21625051295
0	1674	2047.330250127389	2.624257375847
0	1676	2047.549574063846	0.219323936457
0	1679	2052.210579005798	4.661004941952
0	1682	2056.492355960195	4.281776954397
0	1684	2057.051703447327	0.559347487132
0	1685	2057.188110170683	0.136406723356
0	1686	2058.658767391703	1.47065722102
0	1693	2063.957739578165	5.298972186462
0	1694	2066.263472357329	2.305732779164
0	1695	2067.669833561152	1.406361203823
0	1699	2068.952049779461	1.282216218309
0	1700	2075.486062489416	6.534012709955
0	1704	2081.591455884903	6.105393395487
0	1711	2084.720082049133	3.12862616423
0	1725	2090.076983059814	5.356901010681
0	1728	2092.352649101016	2.275666041202
0	1730	2100.722377654285	8.369728553269
0	1731	2101.174657237469	0.452279583184
0	1735	2103.905018897643	2.730361660174
0	1742	2108.538661386164	4.633642488521
0	1746	2112.034273811397	3.495612425233
0	1747	2117.647202229296	5.612928417899
0	1755	2123.213574922871	5.566372693575
0	1760	2130.312080395031	7.09850547216
0	1762	2132.629300491919	2.317220096888
0	1764	2137.231384864522	4.602084372603
0	1766	2139.691539279017	2.460154414495
0	1770	2141.164252147045	1.472712868028
0	1775	2144.780046893001	3.615794745956
0	1779	2146.569626419084	1.789579526083
0	1782	2151.899118442277	5.329492023193
0	1784	2152.761531830401	0.862413388124
0	1790	2167.147343110762	14.385811280361
0	1792	2167.371562039651	0.224218928889
0	1795	2170.744846984955	3.373284945304
0	1797	2172.922866346331	2.178019361376
0	1802	2180.653261651872	7.730395305541
0	1805	2185.011405569758	4.358143917886
0	1808	2187.744700668391	2.733295098633
0	1812	2196.951423832531	9.20672316414
0	1814	2197.352387262132	0.400963429601
0	1819	2215.83101471667	18.478627454538
0	1822	2221.423348466053	5.592333749383
0	1824	2223.494865309454	2.071516843401
0	1826	2223.561231455251	0.066366145797
0	1831	2233.728914541778	10.167683086527
0	1833	2237.846300697764	4.117386155986
0	1835	2238.317068264706	0.470767566942
0	1841	2250.304706322388	11.987638057682
0	1843	2251.931442839345	1.626736516957
0	1846	2254.295366574333	2.363923734988
0	1848	2254.377524133691	0.082157559358
0	1850	2257.440842405937	3.063318272246
0	1854	2268.265376079572	10.824533673635
0	1858	2281.399735856724	13.134359777152
0	1860	2284.560272327514	3.16053647079
0	1862	2291.892506529718	7.332234202204
0	1867	2300.177613181587	8.285106651869
0	1869	2301.394363108432	1.216749926845
0	1871	2302.141957111824	0.747594003392
0	1873	2302.987203530272	0.845246418448
0	1877	2318.120311390717	15.133107860445
0	1879	2318.536128790464	0.415817399747
0	1882	2323.613728780363	5.077599989899
0	1884	2327.359237534917	3.745508754554
0	1887	2332.678613395303	5.319375860386
0	1889	2334.342527308146	1.663913912843
0	1891	2334.474651315953	0.132124007807
0	1892	2335.694780415555	1.220129099602
0	1893	2342.661893633925	6.96711321837
0	1904	2351.540969763046	8.879076129121
0	1906	2355.522186807272	3.981217044226
0	1910	2362.28950387695	6.767317069678
0	1911	2364.980299794567	2.690795917617
0	1912	2365.043477054011	0.063177259444
0	1919	2368.242878883352	3.199401829341
0	1920	2368.305439993716	0.062561110364
0	1924	2370.460801353088	2.155361359372
0	1925	2372.51251915876	2.051717805672
0	1929	2376.574264773777	4.061745615017
0	1933	2379.757725042801	3.183460269024
0	1934	2383.330490110343	3.572765067542
0	1935	2386.689633116046	3.359143005703
0	1936	2388.100078017395	1.410444901349
0	1937	2392.274504303755	4.17442628636
0	1941	2395.183150072953	2.908645769198
0	1942	2396.729244795443	1.54609472249
0	1943	2396.921121967174	0.191877171731
0	1953	2402.871202108197	5.950080141023
0	1954	2404.069994217296	1.198792109099
0	1964	2405.233443685439	1.163449468143
0	1974	2409.010907695726	3.777464010287
0	1987	2414.748687699165	5.737780003439
0	1988	2417.153622057226	2.404934358061
0	1989	2424.561114126104	7.407492068878
0	1990	2425.049098215106	0.487984089002
0	1994	2426.885199384091	1.836101168985
0	2001	2429.542165407483	2.656966023392
0	2002	2431.948227940547	2.406062533064
0	2012	2438.044902752521	6.096674811974
0	2022	2441.806772562991	3.76186981047
0	2023	2442.471585623906	0.664813060915
0	2032	2448.675847064847	6.204261440941
0	2034	2449.21189292563	0.536045860783
0	2036	2453.7096895604	4.49779663477
0	2040	2459.340108674888	5.630419114488
0	2041	2460.549185434474	1.209076759586
0	2049	2471.39830447583	10.849119041356
0	2053	2474.976963215587	3.578658739757
0	2055	2478.032744714207	3.05578149862
0	2058	2483.928669879295	5.895925165088
0	2062	2488.605268550108	4.676598670813
0	2071	2512.484261733226	23.878993183118
0	2073	2514.794376706721	2.310114973495
0	2078	2532.693227051876	17.898850345155
0	2080	2535.331208648883	2.637981597007
0	2082	2536.973426289385	1.642217640502
0	2084	2537.494676812395	0.52125052301
0	2086	2538.753011926694	1.258335114299
0	2088	2540.426724974267	1.673713047573
0	2091	2541.452661927792	1.025936953525
0	2095	2546.798667898317	5.346005970525
0	2097	2550.010265921304	3.211598022987
0	2099	2553.677454325497	3.667188404193
0	2102	2554.778371097473	1.100916771976
0	2104	2559.332712698127	4.554341600654
0	2107	2563.206340604458	3.873627906331
0	2109	2567.346738666273	4.140398061815
0	2111	2567.511784811985	0.165046145712
0	2112	2567.558622092211	0.046837280226
0	2113	2570.855365697629	3.296743605418
0	2114	2570.971037430422	0.115671732793
0	2118	2572.941165766328	1.970128335906
0	2122	2575.03835586897	2.097190102642
0	2126	2575.54086749854	0.50251162957
0	2140	2586.366300797656	10.825433299116
0	2142	2594.233133681401	7.866832883745
0	2143	2600.442663650355	6.209529968954
0	2144	2607.13044278861	6.687779138255
0	2148	2610.281307052817	3.150864264207
0	2152	2611.871884715376	1.590577662559
0	2153	2616.515850652467	4.643965937091
0	2154	2617.173649011376	0.657798358909
0	2155	2618.389378427125	1.215729415749
0	2156	2620.04235844634	1.652980019215
0	2157	2623.299856089685	3.257497643345
0	2158	2623.950872418855	0.65101632917
0	2159	2626.743374814883	2.792502396028
0	2160	2629.457502799701	2.714127984818
0	2164	2633.609445585278	4.151942785577
0	2165	2634.512013032852	0.902567447574
0	2169	2641.585208928201	7.073195895349
0	2176	2644.779931009112	3.194722080911
0	2177	2645.494015740231	0.714084731119
0	2184	2648.97155178276	3.477536042529
0	2191	2653.500755380533	4.529203597773
0	2195	2655.964600384952	2.463845004419
0	2199	2664.640303858759	8.675703473807
0	2200	2665.036777630287	0.396473771528
0	2207	2668.838657823918	3.801880193631
0	2211	2672.25410833836	3.415450514442
0	2215	2675.190011077148	2.935902738788
0	2219	2679.916273008719	4.726261931571
0	2220	2683.325851570084	3.409578561365
0	2230	2696.053885312329	12.728033742245
0	2237	2699.427385726933	3.373500414604
0	2238	2700.895812374739	1.468426647806
0	2239	2701.173921845139	0.2781094704
0	2252	2709.709901727809	8.53597988267
0	2253	2710.385814487775	0.675912759966
0	2254	2711.268716171861	0.882901684086
0	2255	2712.383507425454	1.114791253593
0	2268	2729.808345564447	17.424838138993
0	2272	2729.95893806113	0.150592496683
0	2296	2743.521267492825	13.562329431695
0	2300	2745.58383183744	2.062564344615
0	2303	2746.116945320332	0.533113482892
0	2305	2746.763499333983	0.646554013651
0	2308	2748.25099227231	1.487492938327
0	2311	2750.459154040801	2.208161768491
0	2314	2753.822378564187	3.363224523386
0	2316	2756.13431189617	2.311933331983
0	2322	2765.470676169589	9.336364273419
0	2324	2767.63165406448	2.160977894891
0	2327	2768.939314788735	1.307660724255
0	2329	2769.763607199753	0.824292411018
0	2332	2770.671286994423	0.90767979467
0	2335	2772.106183337447	1.434896343024
0	2337	2777.344351120886	5.238167783439
0	2339	2778.597248979382	1.252897858496
0	2343	2780.254847688842	1.65759870946
0	2344	2781.922815623012	1.66796793417
0	2348	2785.597981114187	3.675165491175
0	2349	2791.115374318762	5.517393204575
0	2360	2799.241397028717	8.126022709955
0	2363	2800.633603752233	1.392206723516
0	2365	2800.938240921363	0.30463716913
0	2370	2813.7342587453	12.796017823937
0	2372	2815.968304256463	2.234045511163
0	2378	2819.212375491378	3.244071234915
0	2388	2846.167365360332	26.954989868954
0	2390	2846.574082030925	0.406716670593
0	2392	2849.231997893487	2.657915862562
0	2394	2859.140581651585	9.908583758098
0	2396	2864.216176063506	5.075594411921
0	2400	2874.348047301185	10.131871237679
0	2403	2878.887160676638	4.539113375453
0	2405	2879.546254437807	0.659093761169
0	2407	2879.615960176883	0.069705739076
0	2410	2881.68852417995	2.072564003067
0	2413	2884.121701086964	2.433176907014
0	2415	2886.907705469461	2.786004382497
0	2417	2887.129374314867	0.221668845406
0	2419	2887.502843362012	0.373469047145
0	2423	2890.021260957403	2.518417595391
0	2425	2891.062118704503	1.0408577471
0	2427	2893.3208020146	2.258683310097
0	2432	2895.941782606763	2.620980592163
0	2436	2899.11623431511	3.174451708347
0	2438	2902.24900086754	3.13276655243
0	2441	2905.26029177405	3.01129090651
0	2443	2907.436014350858	2.175722576808
0	2444	2909.245870350815	1.809855999957
0	2445	2909.719709516681	0.473839165866
0	2460	2932.708812673073	22.989103156392
0	2464	2935.630483459763	2.92167078669
0	2467	2940.49821372869	4.867730268927
0	2469	2941.206186029415	0.707972300725
0	2473	2949.115041029316	7.908854999901
0	2475	2953.789296047497	4.674255018181
0	2478	2958.593701990995	4.804405943498
0	2482	2963.724947714777	5.131245723782
0	2485	2964.767229568526	1.042281853749
0	2489	2972.042866196962	7.275636628436
0	2493	2975.456613591327	3.413747394365
0	2495	2976.707066252914	1.250452661587
0	2498	2982.692360715815	5.985294462901
0	2500	2982.803187829129	0.110827113314
0	2502	2983.269765320434	0.466577491305
0	2505	2984.926896296344	1.65713097591
0	2510	2993.171507767509	8.244611471165
0	2512	2993.998788925388	0.827281157879
0	2514	3002.333532483449	8.334743558061
0	2516	3004.48984565635	2.156313172901
0	2518	3006.201900830297	1.712055173947
0	2520	3007.438340029301	1.236439199004
0	2522	3009.286876515849	1.848536486548
0	2526	3012.362733347923	3.075856832074
0	2528	3013.82544618624	1.462712838317
0	2530	3016.610502517561	2.785056331321
0	2534	3018.780073050627	2.169570533066
0	2535	3022.061422681722	3.281349631095
0	2539	3023.296296222087	1.234873540365
0	2540	3025.898567573286	2.602271351199
0	2541	3026.167775993823	0.269208420537
0	2545	3034.229855799716	8.062079805893
0	2546	3034.553105106461	0.323249306745
0	2550	3036.090630319381	1.53752521292
0	2551	3042.866996029907	6.776365710526
0	2555	3045.365442037293	2.498446007386
0	2562	3057.378967464361	12.013525427068
0	2572	3063.301953832487	5.922986368126
0	2576	3065.442220064479	2.140266231992
0	2577	3068.326973875274	2.884753810795
0	2578	3070.81780620628	2.490832331006
0	2594	3079.425041016211	8.607234809931
0	2595	3082.067458862829	2.642417846618
0	2603	3093.157642764618	11.090183901789
0	2606	3093.859942276466	0.702299511848
0	2611	3098.351122896917	4.491180620451
0	2613	3098.403879842158	0.052756945241
0	2616	3102.835354323043	4.431474480885
0	2621	3106.915844774279	4.080490451236
0	2624	3111.935894801088	5.020050026809
0	2628	3115.484121966238	3.54822716515
0	2633	3136.635299682744	21.151177716506
0	2635	3140.195956540616	3.560656857872
0	2637	3141.303365511764	1.107408971148
0	2641	3149.23875819929	7.935392687526
0	2643	3151.725903182414	2.487144983124
0	2645	3152.777142642998	1.051239460584
0	2648	3154.689153902348	1.91201125935
0	2650	3156.412894397698	1.72374049535
0	2652	3159.708384940119	3.295490542421
0	2658	3172.821622687078	13.113237746959
0	2660	3174.533305859347	1.711683172269
0	2662	3175.304051632596	0.770745773249
0	2665	3179.789788320542	4.485736687946
0	2670	3191.211083745318	11.421295424776
0	2674	3200.594397550852	9.383313805534
0	2676	3207.42840975482	6.834012203968
0	2678	3209.447300733563	2.018890978743
0	2680	3210.44023288385	0.992932150287
0	2684	3213.496913967498	3.056681083648
0	2686	3213.641739774753	0.144825807255
0	2688	3216.376212756841	2.734472982088
0	2696	3229.125863118997	12.749650362156
0	2699	3236.168451825245	7.042588706248
0	2701	3240.410224168436	4.241772343191
0	2703	3240.86230754	0.452083371564
0	2706	3242.876257677561	2.013950137561
0	2708	3245.881042849512	3.004785171951
0	2711	3250.326262569359	4.445219719847
0	2713	3250.358647268799	0.03238469944
0	2715	3255.080354562864	4.721707294065
0	2719	3259.29785400171	4.217499438846
0	2721	3261.329748732135	2.031894730425
0	2724	3265.602260326501	4.272511594366
0	2726	3267.839360107218	2.237099780717
0	2729	3272.855809714729	5.016449607511
0	2731	3273.442348006462	0.586538291733
0	2735	3274.792126712471	1.349778706009
0	2739	3275.916951363777	1.124824651306
0	2744	3280.910016617983	4.993065254206
0	2752	3293.511014598188	12.600997980205
0	2754	3296.707364388573	3.196349790385
0	2761	3317.324559242815	20.617194854242
0	2763	3325.053487701687	7.728928458872
0	2766	3328.762191196053	3.708703494366
0	2768	3333.215022266348	4.452831070295
0	2770	3341.76480757091	8.549785304562
0	2774	3351.042755227667	9.277947656757
0	2776	3352.115760942475	1.073005714808
0	2778	3352.518458304727	0.402697362252
0	2782	3365.540480090249	13.022021785522
0	2785	3368.06617040306	2.525690312811
0	2787	3369.243714679999	1.177544276939
0	2789	3370.379924478092	1.136209798093
0	2792	3375.217297397368	4.837372919276
0	2794	3382.642640709808	7.42534331244
0	2800	3395.497177308704	12.854536598896
0	2802	3396.198994802848	0.701817494144
0	2804	3398.711158127938	2.51216332509
0	2808	3415.707727795938	16.996569668
0	2811	3430.000996178671	14.293268382733
0	2814	3433.452030473069	3.451034294398
0	2818	3441.654027952534	8.201997479465
0	2824	3454.298979736519	12.644951783985
0	2826	3458.195719769883	3.896740033364
0	2828	3459.86761726326	1.671897493377
0	2830	3464.433288031209	4.565670767949
0	2832	3465.609849678772	1.176561647563
0	2838	3474.830211579327	9.220361900555
0	2840	3475.967128657844	1.136917078517
0	2842	3483.569854295455	7.602725637611
0	2844	3483.814633006343	0.244778710888
0	2846	3483.993161096387	0.178528090044
0	2848	3485.684053189362	1.690892092975
0	2853	3490.705158112835	5.021104923473
0	2855	3492.458169015874	1.753010903039
0	2857	3494.763384485237	2.305215469363
0	2859	3495.296433464009	0.533048978772
0	2861	3497.401280870373	2.104847406364
0	2864	3499.100352911992	1.699072041619
0	2871	3505.233021686409	6.132668774417
0	2873	3506.071915094133	0.838893407724
0	2876	3512.896525956094	6.824610861961
0	2879	3520.017521924562	7.120995968468
0	2881	3520.787133076455	0.769611151893
0	2884	3528.27927937356	7.492146297105
0	2890	3541.272824486133	12.993545112573
0	2893	3559.029182248774	17.756357762641
0	2895	3563.87980249662	4.850620247846
0	2897	3565.848812364789	1.969009868169
0	2901	3567.736443240848	1.887630876059
0	2904	3572.2541482118	4.517704970952
0	2908	3585.800188697892	13.546040486092
0	2910	3586.514902179304	0.714713481412
0	2913	3590.50382240545	3.988920226146
0	2915	3591.914613260499	1.410790855049
0	2917	3597.17173548858	5.257122228081
0	2920	3604.019463772491	6.847728283911
0	2922	3604.072087993137	0.052624220646
0	2924	3608.634372837046	4.562284843909
0	2929	3613.00151567765	4.367142840604
0	2931	3619.016520729037	6.015005051387
0	2935	3624.746316356231	5.729795627194
0	2939	3629.284118015026	4.537801658795
0	2942	3631.039599752744	1.755481737718
0	2944	3632.842736845369	1.803137092625
0	2946	3633.947270345406	1.104533500037
0	2949	3635.270411777609	1.323141432203
0	2951	3636.32367025016	1.053258472551
0	2954	3642.668638074199	6.344967824039
0	2957	3651.939979089029	9.27134101483
0	2959	3655.416350637164	3.476371548135
0	2963	3659.60690314134	4.190552504176
0	2967	3662.038342744884	2.431439603544
0	2968	3663.372156814241	1.333814069357
0	2972	3663.589676095591	0.21751928135
0	2979	3678.734398638044	15.144722542453
0	2980	3682.577457445807	3.843058807763
0	2984	3686.050906465694	3.473449019887
0	2988	3690.568356677038	4.517450211344
0	2989	3694.899232825888	4.33087614885
0	2993	3696.646609312115	1.747376486227
0	2994	3697.407114677853	0.760505365738
0	2995	3698.391193139123	0.98407846127
0	2996	3698.770004966719	0.378811827596
0	3003	3708.087408548368	9.317403581649
0	3004	3708.63899819418	0.551589645812
0	3011	3711.978765919671	3.339767725491
0	3021	3718.065522500195	6.086756580524
0	3031	3725.125049842496	7.059527342301
0	3032	3730.293205330633	5.168155488137
0	3041	3735.54164447182	5.248439141187
0	3045	3738.099420840891	2.557776369071
0	3050	3743.962345022344	5.862924181453
0	3053	3746.54625032662	2.583905304276
0	3055	3749.193231747873	2.646981421253
0	3057	3751.49821324151	2.304981493637
0	3059	3751.815103961743	0.316890720233
0	3061	3752.662654645864	0.847550684121
0	3066	3763.212526019216	10.549871373352
0	3069	3765.058623017825	1.846096998609
0	3072	3765.790655391869	0.732032374044
0	3074	3767.088819724912	1.298164333043
0	3076	3769.023584322541	1.934764597629
0	3078	3769.143755397964	0.120171075423
0	3079	3772.067137283588	2.923381885624
0	3080	3774.245847425373	2.178710141785
0	3087	3781.239020700214	6.993173274841
0	3098	3786.378546265252	5.139525565038
0	3100	3787.839967570321	1.461421305069
0	3102	3788.18314739734	0.343179827019
0	3104	3788.629265910519	0.446118513179
0	3109	3791.485389112626	2.856123202107
0	3111	3792.181825303959	0.696436191333
0	3114	3795.594559551968	3.412734248009
0	3116	3799.680118577404	4.085559025436
0	3120	3801.564955314126	1.884836736722
0	3122	3803.236927293735	1.671971979609
0	3124	3805.848730084475	2.61180279074
0	3131	3815.174280022177	9.325549937702
0	3133	3817.983689616343	2.809409594166
0	3135	3818.687890600259	0.704200983916
0	3139	3823.534805632364	4.846915032105
0	3141	3826.651393560994	3.11658792863
0	3143	3828.420912807817	1.769519246823
0	3148	3832.978332560524	4.557419752707
0	3150	3833.448004096914	0.46967153639
0	3155	3838.410730013609	4.962725916695
0	3157	3844.926036807133	6.515306793524
0	3158	3846.381809622008	1.455772814875
0	3162	3849.6777061016	3.295896479592
0	3169	3856.468330621461	6.790624519861
0	3170	3857.045261948305	0.576931326844
0	3174	3859.874023446118	2.828761497813
0	3175	3860.091395770428	0.21737232431
0	3176	3860.331232489773	0.239836719345
0	3183	3869.962741514388	9.631509024615
0	3184	3872.195099790331	2.232358275943
0	3188	3876.196154878193	4.001055087862
0	3195	3880.681364439992	4.485209561799
0	3196	3881.833785565574	1.152421125582
0	3200	3883.724618002415	1.890832436841
0	3207	3888.625855293261	4.901237290846
0	3217	3895.107420163226	6.481564869965
0	3218	3895.199570335938	0.092150172712
0	3227	3902.163986848171	6.964416512233
0	3229	3903.478333855469	1.314347007298
0	3232	3904.722020653604	1.243686798135
0	3236	3907.852420824315	3.130400170711
0	3239	3918.727091252076	10.874670427761
0	3245	3932.796279173034	14.069187920958
0	3247	3934.191663201925	1.395384028891
0	3252	3947.536631603084	13.344968401159
0	3254	3951.931306780298	4.394675177214
0	3257	3957.407619389413	5.476312609115
0	3262	3963.101223829186	5.693604439773
0	3264	3968.590551210422	5.489327381236
0	3267	3970.408096153911	1.817544943489
0	3271	3978.067162735061	7.65906658115
0	3273	3978.157686117507	0.090523382446
0	3275	3980.535441162466	2.377755044959
0	3279	3991.453319283399	10.917878120933
0	3282	3993.013014319383	1.559695035984
0	3285	3996.502780275188	3.489765955805
0	3287	4001.847976860646	5.345196585458
0	3290	4002.451097120066	0.60312025942
0	3292	4004.783799148175	2.332702028109
0	3296	4013.132728965268	8.348929817093
0	3301	4017.193569065661	4.060840100393
0	3303	4018.011287637339	0.817718571678
0	3307	4025.827612472782	7.816324835443
0	3309	4027.428670552091	1.601058079309
0	3311	4030.57271333118	3.144042779089
0	3315	4033.838915053378	3.266201722198
0	3317	4033.860718690545	0.021803637167
0	3319	4035.693418605428	1.832699914883
0	3322	4039.376873213478	3.68345460805
0	3325	4041.053444450166	1.676571236688
0	3327	4041.054521134106	0.00107668394
0	3329	4046.132131945252	5.077610811146
0	3331	4046.367541519785	0.235409574533
0	3335	4051.002391465383	4.634849945598
0	3338	4055.186556006445	4.184164541062
0	3341	4062.119527936294	6.932971929849
0	3343	4071.76950510797	9.649977171676
0	3346	4077.911305290357	6.141800182387
0	3349	4079.663997815939	1.752692525582
0	3351	4080.891511139134	1.227513323195
0	3355	4083.575901600959	2.684390461825
0	3356	4085.146500284626	1.570598683667
0	3360	4097.442815401666	12.29631511704
0	3361	4099.591111975304	2.148296573638
0	3365	4101.945477422451	2.354365447147
0	3366	4102.198984123641	0.25350670119
0	3367	4104.042494822624	1.843510698983
0	3383	4112.883699660771	8.841204838147
0	3384	4119.558751489642	6.675051828871
0	3388	4121.141882758673	1.583131269031
0	3400	4147.231303704532	26.089420945859
0	3403	4149.907978182325	2.676674477793
0	3407	4155.154192478611	5.246214296286
0	3410	4168.860487396312	13.706294917701
0	3412	4169.066290795771	0.205803399459
0	3414	4171.832288890071	2.7659980943
0	3418	4175.323819428987	3.491530538916
0	3420	4175.634701777831	0.310882348844
0	3422	4179.601230943565	3.966529165734
0	3426	4183.80507767824	4.203846734675
0	3430	4190.072903923701	6.267826245461
0	3434	4194.403420573265	4.330516649564
0	3437	4198.389967851841	3.986547278576
0	3442	4206.66786181287	8.277893961029
0	3444	4209.320430197311	2.652568384441
0	3446	4217.362289447322	8.041859250011
0	3449	4224.42725505698	7.064965609658
0	3451	4228.526222442105	4.098967385125
0	3453	4229.488681517493	0.962459075388
0	3455	4230.531449612345	1.042768094852
0	3458	4232.93824906016	2.406799447815
0	3461	4238.623449756456	5.685200696296
0	3463	4239.475172266452	0.851722509996
0	3466	4240.676617818605	1.201445552153
0	3468	4241.787770447714	1.111152629109
0	3471	4243.115021416172	1.327250968458
0	3473	4247.960348167789	4.845326751617
0	3474	4248.53495554317	0.574607375381
0	3478	4258.110339192802	9.575383649632
0	3486	4266.686264252183	8.575925059381
0	3489	4270.349612135109	3.663347882926
0	3491	4270.865355274073	0.515743138964
0	3492	4274.158880866524	3.293525592451
0	3499	4277.081409946123	2.922529079599
0	3500	4282.614543865477	5.533133919354
0	3501	4283.568932784193	0.954388918716
0	3505	4286.707566066801	3.138633282608
0	3506	4289.140477953273	2.432911886472
0	3513	4294.416937091451	5.276459138178
0	3520	4299.026925255725	4.609988164274
0	3530	4305.11407894907	6.087153693345
0	3533	4305.680468057195	0.566389108125
0	3536	4313.949131155872	8.268663098677
0	3539	4320.083018052547	6.133886896675
0	3545	4328.857966944671	8.774948892124
0	3547	4330.172299978412	1.314333033741
0	3551	4335.315847649495	5.143547671083
0	3555	4344.22587622038	8.910028570885
0	3557	4353.320957165867	9.095080945487
0	3559	4354.207477485678	0.886520319811
0	3565	4371.117478000821	16.910000515143
0	3568	4373.935803909201	2.81832590838
0	3570	4377.182000363477	3.246196454276
0	3572	4377.569383193858	0.387382830381
0	3574	4382.403239392715	4.833856198857
0	3576	4385.877087777265	3.47384838455
0	3578	4388.361177437492	2.484089660227
0	3580	4389.163699944627	0.802522507135
0	3582	4390.057720545538	0.894020600911
0	3584	4390.308000459992	0.250279914454
0	3588	4395.734400860593	5.426400400601
0	3592	4396.894141595158	1.159740734565
0	3593	4396.987099855331	0.092958260173
0	3605	4404.775233011875	7.788133156544
0	3607	4404.786100490246	0.010867478371
0	3610	4410.145549344552	5.359448854306
0	3614	4417.744375985023	7.598826640471
0	3616	4419.897227708046	2.152851723023
0	3618	4421.48815652285	1.590928814804
0	3620	4425.004578945792	3.516422422942
0	3623	4425.661522726155	0.656943780363
0	3625	4426.843209509678	1.181686783523
0	3627	4428.974583945093	2.131374435415
0	3633	4436.184705579386	7.210121634293
0	3636	4437.863848719914	1.679143140528
0	3639	4440.407376136499	2.543527416585
0	3642	4442.134923718455	1.727547581956
0	3646	4445.086739135286	2.951815416831
0	3650	4447.990620032565	2.903880897279
0	3653	4450.500602829751	2.509982797186
0	3655	4451.795231173305	1.294628343554
0	3658	4460.781321404008	8.986090230703
0	3663	4467.59149885811	6.810177454102
0	3665	4467.844677106868	0.253178248758
0	3669	4472.942582734999	5.097905628131
0	3673	4476.829526663572	3.886943928573
0	3678	4480.420004981015	3.590478317443
0	3683	4498.267772747012	17.847767765997
0	3685	4507.711980762904	9.444208015892
0	3687	4514.156128366985	6.444147604081
0	3689	4515.450080178012	1.293951811027
0	3691	4517.681685174107	2.231604996095
0	3693	4519.456333872272	1.774648698165
0	3695	4519.591208100846	0.134874228574
0	3697	4521.360141894458	1.768933793612
0	3699	4523.024045021558	1.6639031271
0	3702	4524.08849747012	1.064452448562
0	3705	4528.880232887155	4.791735417035
0	3708	4536.76681396458	7.886581077425
0	3710	4541.447033888473	4.680219923893
0	3713	4541.983765966579	0.536732078106
0	3717	4550.242011689533	8.258245722954
0	3720	4551.356242244605	1.114230555072
0	3722	4552.947424841877	1.591182597272
0	3729	4561.438093379814	8.490668537937
0	3731	4562.735209529166	1.297116149352
0	3733	4564.242671758733	1.507462229567
0	3735	4565.512020798307	1.269349039574
0	3737	4570.208974830247	4.69695403194
0	3740	4575.255933451721	5.046958621474
0	3742	4577.249176384606	1.993242932885
0	3747	4581.792653869747	4.543477485141
0	3749	4582.172622871703	0.379969001956
0	3753	4583.669339318483	1.49671644678
0	3754	4584.780759844637	1.111420526154
0	3758	4585.848477841804	1.067717997167
0	3762	4587.92801797266	2.079540130856
0	3763	4587.947562973369	0.019545000709
0	3767	4592.482194518074	4.534631544705
0	3771	4594.938117168613	2.455922650539
0	3772	4594.94435826315	0.006241094537
0	3786	4597.107895133866	2.163536870716
0	3791	4606.834365543143	9.726470409277
0	3796	4619.134794238325	12.300428695182
0	3798	4619.455153316403	0.320359078078
0	3800	4622.524696761502	3.069543445099
0	3803	4624.259784821927	1.735088060425
0	3805	4626.780355680631	2.520570858704
0	3808	4637.22605605535	10.445700374719
0	3810	4639.481178598203	2.255122542853
0	3816	4648.540814290415	9.059635692212
0	3818	4650.694908168398	2.154093877983
0	3820	4651.527130958814	0.832222790416
0	3823	4657.573968666395	6.046837707581
0	3825	4658.112252674303	0.538284007908
0	3828	4663.922060560743	5.80980788644
0	3831	4665.661347299869	1.739286739126
0	3837	4675.320007034443	9.658659734574
0	3842	4686.267234031081	10.947226996638
0	3845	4691.174642842261	4.90740881118
0	3847	4692.883396997977	1.708754155716
0	3849	4693.263753717162	0.380356719185
0	3851	4693.772369089905	0.508615372743
0	3855	4705.982573690742	12.210204600837
0	3857	4706.461506536045	0.478932845303
0	3860	4713.711309130523	7.249802594478
0	3865	4719.115226167043	5.40391703652
0	3867	4724.518755358469	5.403529191426
0	3869	4725.195344203455	0.676588844986
0	3878	4734.693371907282	9.498027703827
0	3880	4740.693555373468	6.000183466186
0	3883	4744.575451509273	3.881896135805
0	3886	4748.640898022367	4.065446513094
0	3889	4754.816834894516	6.175936872149
0	3892	4759.4282178365	4.611382941984
0	3896	4774.618454106595	15.190236270095
0	3898	4775.277466559619	0.659012453024
0	3900	4786.257401248146	10.979934688527
0	3902	4790.848134941363	4.590733693217
0	3904	4794.649497273562	3.801362332199
0	3908	4803.652630802855	9.003133529293
0	3910	4805.974395576109	2.321764773254
0	3913	4813.502410172696	7.528014596587
0	3916	4817.677220369939	4.174810197243
0	3918	4817.843480402097	0.166260032158
0	3920	4820.931212512604	3.087732110507
0	3922	4821.591676529804	0.6604640172
0	3924	4823.040130042927	1.448453513123
0	3926	4823.150286129774	0.110156086847
0	3927	4823.304903081311	0.154616951537
0	3931	4824.651967865155	1.347064783844
0	3935	4827.344267472636	2.692299607481
0	3936	4828.695355673831	1.351088201195
0	3943	4830.654181429544	1.958825755713
0	3950	4836.247337897131	5.593156467587
0	3956	4842.992263287802	6.744925390671
0	3959	4843.938103407648	0.945840119846
0	3964	4852.757659698654	8.819556291006
0	3967	4856.212151639414	3.45449194076
0	3970	4859.524417839011	3.312266199597
0	3972	4860.667410880137	1.142993041126
0	3974	4861.75491570165	1.087504821513
0	3976	4863.008645941234	1.253730239584
0	3979	4866.431348484354	3.42270254312
0	3982	4867.371874276516	0.940525792162
0	3986	4871.08291526232	3.711040985804
0	3991	4876.311313437746	5.228398175426
0	3995	4879.499439434887	3.188125997141
0	3998	4881.656722854425	2.157283419538
0	4000	4887.946900196943	6.290177342518
0	4002	4888.039684312459	0.092784115516
0	4005	4891.858651068577	3.818966756118
0	4008	4892.998311479219	1.139660410642
0	4010	4893.619748796943	0.621437317724
0	4012	4895.631761466423	2.01201266948
0	4014	4897.131795801646	1.500034335223
0	4015	4897.274525087952	0.142729286306
0	4016	4898.436498260516	1.161973172564
0	4027	4909.35918690836	10.922688647844
0	4029	4910.018742488801	0.659555580441
0	4034	4912.150685526025	2.131943037224
0	4036	4912.942401095243	0.791715569218
0	4037	4914.044070989277	1.101669894034
0	4041	4917.581818576923	3.537747587646
0	4042	4919.407745005649	1.825926428726
0	4046	4919.990141246285	0.582396240636
0	4047	4923.969401888065	3.97926064178
0	4062	4929.509287461077	5.539885573012
0	4065	4931.388045371295	1.878757910218
0	4073	4948.273139961829	16.885094590534
0	4075	4949.254741540145	0.981601578316
0	4078	4963.100963557381	13.846222017236
0	4081	4964.125290187751	1.02432663037
0	4085	4971.976008877104	7.850718689353
0	4087	4981.16875484812	9.192745971016
0	4089	4982.681330891565	1.512576043445
0	4097	5005.583258181634	22.901927290069
0	4099	5012.081552416311	6.498294234677
0	4101	5014.459412091932	2.377859675621
0	4103	5017.154125925749	2.694713833817
0	4105	5019.208572987368	2.054447061619
0	4108	5021.872566562484	2.663993575116
0	4110	5026.63967781405	4.767111251566
0	4112	5027.835124949137	1.195447135087
0	4114	5028.072987834091	0.237862884954
0	4116	5028.694974871787	0.621987037696
0	4118	5030.28579322834	1.590818356553
0	4120	5030.994996702916	0.709203474576
0	4125	5035.415763616945	4.420766914029
0	4129	5042.930167412846	7.514403795901
0	4133	5046.556167659165	3.626000246319
0	4135	5047.846062930746	1.289895271581
0	4137	5049.875168624967	2.029105694221
0	4139	5052.637193330735	2.762024705768
0	4143	5054.16920625869	1.532012927955
0	4144	5056.568385989717	2.399179731027
0	4151	5068.949685852561	12.381299862844
0	4155	5071.389802447961	2.4401165954
0	4156	5074.111647475155	2.721845027194
0	4157	5074.40471946261	0.293071987455
0	4161	5077.281500514294	2.876781051684
0	4171	5088.462077600058	11.180577085764
0	4175	5088.904031235741	0.441953635683
0	4176	5089.018433373114	0.114402137373
0	4180	5092.27635681595	3.257923442836
0	4181	5097.655121551869	5.378764735919
0	4188	5103.067621416387	5.412499864518
0	4189	5103.664866842397	0.59724542601
0	4196	5109.757143422939	6.092276580542
0	4200	5124.364538237838	14.607394814899
0	4207	5130.615930934846	6.251392697008
0	4208	5138.418489884603	7.802558949757
0	4209	5139.067268718927	0.648778834324
0	4216	5143.17720257929	4.109933860363
0	4217	5147.036391304998	3.859188725708
0	4221	5154.76898060018	7.732589295182
0	4222	5154.843553115876	0.074572515696
0	4223	5159.062667477996	4.21911436212
0	4224	5159.625306148285	0.562638670289
0	4225	5163.100400989956	3.475094841671
0	4232	5177.945671643463	14.845270653507
0	4233	5178.460506925041	0.514835281578
0	4240	5183.44928644919	4.988779524149
0	4241	5183.531763189383	0.082476740193
0	4242	5188.715486006437	5.183722817054
0	4243	5189.265997630418	0.550511623981
0	4250	5194.793635498013	5.527637867595
0	4251	5195.148960426979	0.355324928966
0	4252	5196.876455302746	1.727494875767
0	4265	5206.553415134817	9.676959832071
0	4272	5209.999164912486	3.445749777669
0	4273	5214.268309278276	4.26914436579
0	4280	5221.334731905338	7.066422627062
0	4281	5226.024111904068	4.68937999873
0	4288	5232.503456142816	6.479344238748
0	4292	5234.321587667981	1.818131525165
0	4299	5244.32872539359	10.007137725609
0	4312	5251.723976736283	7.395251342693
0	4320	5260.213086472002	8.489109735719
0	4323	5264.312692510141	4.099606038139
0	4328	5266.943279534349	2.630587024208
0	4333	5268.92450339273	1.981223858381
0	4337	5272.888892343275	3.964388950545
0	4339	5274.150390636515	1.26149829324
0	4341	5279.926786530405	5.77639589389
0	4343	5281.282999920507	1.356213390102
0	4345	5283.382124597897	2.09912467739
0	4347	5285.404959857747	2.02283525985
0	4349	5286.063552159737	0.65859230199
0	4354	5289.631017810623	3.567465650886
0	4359	5296.372522921575	6.741505110952
0	4361	5296.521210796684	0.148687875109
0	4364	5300.551591344281	4.030380547597
0	4367	5303.517686358186	2.966095013905
0	4373	5311.611650925898	8.093964567712
0	4375	5312.28330278599	0.671651860092
0	4379	5316.114195206639	3.830892420649
0	4382	5319.467345530813	3.353150324174
0	4384	5322.802117230084	3.334771699271
0	4386	5323.649603522048	0.847486291964
0	4390	5329.02265064125	5.373047119202
0	4393	5332.198927994117	3.176277352867
0	4395	5334.016908767581	1.817980773464
0	4398	5335.245306749969	1.228397982388
0	4402	5338.768506467508	3.523199717539
0	4404	5339.461750965996	0.693244498488
0	4406	5340.92165944895	1.459908482954
0	4409	5346.688607788972	5.766948340022
0	4411	5349.783278166375	3.094670377403
0	4418	5357.996127755123	8.212849588748
0	4423	5373.156626469849	15.160498714726
0	4425	5374.852257363475	1.695630893626
0	4427	5376.397789168698	1.545531805223
0	4429	5377.39047763822	0.992688469522
0	4431	5378.082276517369	0.691798879149
0	4434	5382.037882777717	3.955606260348
0	4437	5386.806908105912	4.769025328195
0	4442	5393.142601868886	6.335693762974
0	4444	5403.169723699617	10.027121830731
0	4446	5403.495111825925	0.325388126308
0	4448	5405.171150891453	1.676039065528
0	4450	5407.647060232031	2.475909340578
0	4454	5409.96128759523	2.314227363199
0	4458	5424.528834300057	14.567546704827
0	4461	5428.747414404057	4.218580104
0	4463	5429.475487857975	0.728073453918
0	4466	5431.202565071971	1.727077213996
0	4468	5433.515679808659	2.313114736688
0	4473	5436.52822281995	3.012543011291
0	4476	5440.083828147667	3.555605327717
0	4478	5442.73448498903	2.650656841363
0	4482	5446.165439346714	3.430954357684
0	4485	5447.622252952106	1.456813605392
0	4488	5450.75115765433	3.128904702224
0	4492	5459.873577492093	9.122419837763
0	4494	5460.62667994412	0.753102452027
0	4496	5462.188118966505	1.561439022385
0	4499	5466.232650272392	4.044531305887
0	4503	5470.050467907324	3.817817634932
0	4505	5476.382326385327	6.331858478003
0	4507	5478.507628562853	2.125302177526
0	4510	5490.615233509832	12.107604946979
0	4512	5491.388935297039	0.773701787207
0	4516	5496.026275133716	4.637339836677
0	4521	5499.920380815413	3.894105681697
0	4524	5503.273200154522	3.352819339109
0	4527	5507.699432204504	4.426232049982
0	4531	5512.994668897267	5.295236692763
0	4534	5516.600800392888	3.606131495621
0	4538	5520.115745661801	3.514945268913
0	4542	5532.53458111546	12.418835453659
0	4544	5534.14440092858	1.60981981312
0	4546	5534.5927501091	0.44834918052
0	4550	5541.964021145257	7.371271036157
0	4556	5549.507121645325	7.543100500068
0	4558	5551.087302156786	1.580180511461
0	4560	5557.668852047559	6.581549890773
0	4563	5568.863831564714	11.194979517155
0	4566	5573.215978956859	4.352147392145
0	4568	5575.730159177885	2.514180221026
0	4570	5576.770975692085	1.0408165142
0	4572	5579.208376151597	2.437400459512
0	4574	5580.906845999259	1.698469847662
0	4579	5585.540417852774	4.633571853515
0	4583	5588.453093712069	2.912675859295
0	4586	5591.629746261948	3.176652549879
0	4588	5596.198949783724	4.569203521776
0	4591	5597.978030602172	1.779080818448
0	4593	5597.996741726973	0.018711124801
0	4597	5601.691167605677	3.694425878704
0	4601	5602.650538514219	0.959370908542
0	4606	5609.283149909986	6.632611395767
0	4608	5609.3359003721	0.052750462114
0	4609	5609.613747520004	0.277847147904
0	4617	5620.28880237989	10.675054859886
0	4621	5630.572655997894	10.283853618004
0	4623	5630.921244576929	0.348588579035
0	4626	5635.002774558967	4.081529982038
0	4628	5636.209728987961	1.206954428994
0	4632	5637.764061004728	1.554332016767
0	4633	5638.132772301768	0.36871129704
0	4637	5642.448425600789	4.315653299021
0	4646	5652.317652595902	9.869226995113
0	4649	5662.244226170036	9.926573574134
0	4651	5663.86348186163	1.619255691594
0	4654	5665.042903359661	1.179421498031
0	4657	5669.310702399842	4.267799040181
0	4660	5676.022518975216	6.711816575374
0	4663	5679.589100257154	3.566581281938
0	4665	5681.114069404338	1.524969147184
0	4671	5684.120544758191	3.006475353853
0	4673	5684.887161137194	0.766616379003
0	4676	5688.383177447255	3.496016310061
0	4678	5692.801296332055	4.4181188848
0	4683	5693.68021739729	0.878921065235
0	4685	5695.10114643023	1.42092903294
0	4689	5701.213209190294	6.112062760064
0	4697	5718.483933595348	17.270724405054
0	4699	5720.045621348916	1.561687753568
0	4704	5726.832408389272	6.786787040356
0	4706	5727.539042576496	0.706634187224
0	4709	5728.288418839558	0.749376263062
0	4711	5729.274217523286	0.985798683728
0	4716	5738.671135951725	9.396918428439
0	4718	5743.562389080649	4.891253128924
0	4720	5748.307707359933	4.745318279284
0	4725	5754.959937947066	6.652230587133
0	4727	5755.995974156802	1.036036209736
0	4729	5759.321072083659	3.325097926857
0	4731	5759.731451635919	0.41037955226
0	4735	5775.200853742473	15.469402106554
0	4740	5781.605714148603	6.40486040613
0	4742	5785.470263231744	3.864549083141
0	4746	5786.685915004668	1.215651772924
0	4748	5787.184017680094	0.498102675426
0	4752	5793.512153953683	6.328136273589
0	4754	5793.941178552032	0.429024598349
0	4760	5798.498654156769	4.557475604737
0	4764	5805.534191732916	7.035537576147
0	4767	5827.520063708648	21.985871975732
0	4769	5835.607559447135	8.087495738487
0	4771	5837.958979054665	2.35141960753
0	4773	5840.057145587806	2.098166533141
0	4776	5845.367767058667	5.310621470861
0	4778	5845.601890231423	0.234123172756
0	4781	5847.35840242437	1.756512192947
0	4783	5851.676576888596	4.318174464226
0	4785	5851.720018937435	0.043442048839
0	4787	5852.948250653797	1.228231716362
0	4790	5855.64380652092	2.695555867123
0	4792	5856.95927786482	1.3154713439
0	4797	5859.35255788857	2.39328002375
0	4802	5868.795456602693	9.442898714123
0	4804	5868.849237749707	0.053781147014
0	4806	5876.722337955385	7.873100205678
0	4810	5882.095672232573	5.373334277188
0	4812	5882.257567397514	0.161895164941
0	4814	5884.08574451566	1.828177118146
0	4819	5891.109934085653	7.024189569993
0	4822	5893.340582259646	2.230648173993
0	4824	5894.534936309635	1.194354049989
0	4825	5895.103216234175	0.56827992454
0	4826	5895.751307019065	0.64809078489
0	4827	5900.544062948315	4.79275592925
0	4831	5906.045583317345	5.50152036903
0	4838	5914.47997944918	8.434396131835
0	4839	5914.668530546476	0.188551097296
0	4846	5917.610542574701	2.942012028225
0	4853	5922.70460236522	5.094059790519
0	4857	5924.173348965065	1.468746599845
0	4861	5924.957704941205	0.78435597614
0	4862	5928.075723156899	3.118018215694
0	4863	5929.443657490736	1.367934333837
0	4864	5931.098392604713	1.654735113977
0	4865	5931.425116443399	0.326723838686
0	4866	5932.379746073981	0.954629630582
0	4867	5932.772763086273	0.393017012292
0	4871	5940.420019638385	7.647256552112
0	4884	5943.786279370897	3.366259732512
0	4891	5950.856024639031	7.069745268134
0	4892	5951.594818921369	0.738794282338
0	4893	5953.489668078856	1.894849157487
0	4894	5953.963531981862	0.473863903006
0	4895	5954.297068807264	0.333536825402
0	4896	5956.229220714993	1.932151907729
0	4897	5956.444406726802	0.215186011809
0	4901	5962.037827900619	5.593421173817
0	4905	5966.723391424181	4.685563523562
0	4912	5972.236209627975	5.512818203794
0	4913	5974.494185798108	2.257976170133
0	4926	5988.845828342708	14.3516425446
0	4930	5997.283031395152	8.437203052444
0	4934	6001.136228439048	3.853197043896
0	4935	6004.005379481536	2.869151042488
0	4939	6009.265588890308	5.260209408772
0	4940	6010.04432128763	0.778732397322
0	4941	6011.034633586808	0.990312299178
0	4945	6027.083276840128	16.04864325332
0	4955	6039.853617729151	12.770340889023
0	4956	6041.178820150015	1.325202420864
0	4957	6045.411434379205	4.23261422919
0	4961	6046.578117807292	1.166683428087
0	4962	6049.440107683857	2.861989876565
0	4972	6055.473085481577	6.03297779772
0	4973	6061.048433717528	5.575348235951
0	4977	6067.322855932878	6.27442221535
0	4981	6073.362421373088	6.03956544021
0	4985	6079.378680220198	6.01625884711
0	4986	6080.624619240898	1.2459390207
0	4990	6082.714111259657	2.089492018759
0	4991	6082.741918961243	0.027807701586
0	4995	6085.102649931938	2.360730970695
0	4996	6085.12741770441	0.024767772472
0	5012	6091.853786716967	6.726369012557
0	5013	6092.522550684533	0.668763967566
0	5017	6095.158675244359	2.636124559826
0	5036	6101.933524589222	6.774849344863
0	5037	6102.886636092751	0.953111503529
0	5041	6111.44185562447	8.555219531719
0	5042	6113.940773175805	2.498917551335
0	5046	6115.345213541537	1.404440365732
0	5047	6115.634305141697	0.28909160016
0	5048	6115.870232003638	0.235926861941
0	5049	6115.884120325188	0.01388832155
0	5050	6118.064891056376	2.180770731188
0	5051	6121.115936169848	3.051045113472
0	5055	6122.766636426851	1.650700257003
0	5059	6126.671122468761	3.90448604191
0	5060	6130.865484696332	4.194362227571
0	5064	6131.742204079726	0.876719383394
0	5065	6133.338988888375	1.596784808649
0	5066	6135.391385944466	2.052397056091
0	5073	6139.958503734206	4.56711778974
0	5077	6142.5383003866	2.579796652394
0	5078	6142.85725971216	0.31895932556
0	5088	6146.594663206269	3.737403494109
0	5101	6157.042418680071	10.447755473802
0	5108	6160.229983602008	3.187564921937
0	5118	6167.562524722567	7.332541120559
0	5119	6168.500180897215	0.937656174648
0	5123	6172.523230658122	4.023049760907
0	5130	6176.852123167567	4.328892509445
0	5140	6184.027875453298	7.175752285731
0	5144	6188.161741473162	4.133866019864
0	5145	6189.323519832157	1.161778358995
0	5152	6197.832235514212	8.508715682055
0	5168	6205.237006390675	7.404770876463
0	5173	6210.751962531239	5.514956140564
0	5175	6210.957541232291	0.205578701052
0	5176	6211.386488749879	0.428947517588
0	5177	6211.574956071036	0.188467321157
0	5178	6212.760868159999	1.185912088963
0	5182	6216.948459988272	4.187591828273
0	5183	6217.518207569168	0.569747580896
0	5187	6221.215646144191	3.697438575023
0	5191	6228.4114955801	7.195849435909
0	5192	6229.755441116212	1.343945536112
0	5193	6230.020158760727	0.264717644515
0	5194	6230.58343396506	0.563275204333
0	5195	6232.055573777274	1.472139812214
0	5205	6235.592074170118	3.536500392844
0	5215	6240.941362666819	5.349288496701
0	5216	6241.544281751496	0.602919084677
0	5217	6242.277676869209	0.733395117713
0	5218	6244.174247426675	1.896570557466
0	5219	6247.673011911886	3.498764485211
0	5226	6251.724497224051	4.051485312165
0	5230	6253.234205855989	1.509708631938
0	5234	6255.804364472259	2.57015861627
0	5238	6258.676370874116	2.872006401857
0	5245	6262.821744066405	4.145373192289
0	5246	6263.073834701075	0.25209063467
0	5253	6264.600050485399	1.526215784324
0	5254	6265.373180320521	0.773129835122
0	5270	6274.233274551041	8.86009423052
0	5274	6278.645715115335	4.412440564294
0	5275	6282.646827716415	4.00111260108
0	5276	6285.054275842051	2.407448125636
0	5280	6286.645284680138	1.591008838087
0	5281	6287.013062371764	0.367777691626
0	5285	6289.129506778144	2.11644440638
0	5286	6292.164535590666	3.035028812522
0	5293	6300.319466836024	8.154931245358
0	5294	6301.301609319239	0.982142483215
0	5298	6307.734730861037	6.433121541798
0	5299	6308.052022883952	0.317292022915
0	5303	6312.016137592814	3.964114708862
0	5307	6314.730135342498	2.713997749684
0	5308	6314.885647876336	0.155512533838
0	5312	6321.598883168041	6.713235291705
0	5313	6322.694973405847	1.096090237806
0	5320	6325.629350471122	2.934377065275
0	5321	6325.879142917808	0.249792446686
0	5328	6328.295505769066	2.416362851258
0	5338	6335.288019845476	6.99251407641
0	5339	6337.228155366399	1.940135520923
0	5346	6344.817838068825	7.589682702426
0	5347	6345.662820882963	0.844982814138
0	5357	6352.563925971782	6.901105088819
0	5361	6359.549732162006	6.985806190224
0	5368	6371.942470983279	12.392738821273
0	5375	6377.34845428042	5.405983297141
0	5376	6378.012650969455	0.664196689035
0	5380	6380.760651858737	2.748000889282
0	5381	6381.507374910567	0.74672305183
0	5385	6383.704281832328	2.196906921761
0	5389	6396.148608873108	12.44432704078
0	5402	6402.926765009179	6.778156136071
0	5412	6407.998539455854	5.071774446675
0	5416	6413.462342496995	5.463803041141
0	5420	6419.757727165034	6.295384668039
0	5428	6428.206495971944	8.44876880691
0	5434	6432.683729377331	4.477233405387
0	5437	6438.907956511201	6.22422713387
0	5439	6444.413612541342	5.505656030141
0	5442	6445.648261605533	1.234649064191
0	5444	6446.806258357517	1.157996751984
0	5447	6450.616750489842	3.810492132325
0	5449	6455.855110643045	5.238360153203
0	5451	6455.865657822464	0.010547179419
0	5455	6460.297142957133	4.431485134669
0	5460	6473.258147690042	12.961004732909
0	5462	6474.98405774713	1.725910057088
0	5466	6478.081786265844	3.097728518714
0	5470	6482.381881070433	4.300094804589
0	5475	6488.20121182348	5.819330753047
0	5477	6489.240348133042	1.039136309562
0	5483	6500.898988349449	11.658640216407
0	5485	6502.648449166197	1.749460816748
0	5488	6503.73136740242	1.082918236223
0	5493	6512.057703407805	8.326336005385
0	5495	6516.696544750244	4.638841342439
0	5499	6520.352222658395	3.655677908151
0	5501	6521.599225933131	1.247003274736
0	5506	6529.994003385392	8.394777452261
0	5508	6532.644835123158	2.650831737766
0	5513	6547.426163649643	14.781328526485
0	5517	6559.438914704444	12.012751054801
0	5519	6565.872588901211	6.433674196767
0	5521	6567.139704251745	1.267115350534
0	5524	6570.624862862432	3.485158610687
0	5527	6580.455969611651	9.831106749219
0	5530	6585.489755688439	5.033786076788
0	5532	6585.721204312303	0.231448623864
0	5535	6590.077716840611	4.356512528308
0	5537	6590.519906969776	0.442190129165
0	5542	6599.371568358704	8.851661388928
0	5544	6601.136670086461	1.765101727757
0	5546	6601.172452525912	0.035782439451
0	5549	6603.197909276125	2.025456750213
0	5551	6606.888859714268	3.690950438143
0	5556	6612.462542634603	5.573682920335
0	5558	6612.899788677775	0.437246043172
0	5561	6619.666484358788	6.766695681013
0	5565	6622.381032713545	2.714548354757
0	5570	6628.852515421961	6.471482708416
0	5573	6631.752973108171	2.90045768621
0	5575	6632.167001538549	0.414028430378
0	5578	6641.891424356876	9.724422818327
0	5580	6642.141454744234	0.250030387358
0	5583	6643.695934087572	1.554479343338
0	5585	6644.055541092313	0.359607004741
0	5589	6651.32992016502	7.274379072707
0	5591	6654.692902207066	3.362982042046
0	5593	6655.669587790648	0.976685583582
0	5597	6663.064175695332	7.394587904684
0	5602	6668.382487395151	5.318311699819
0	5604	6670.391196186369	2.008708791218
0	5606	6674.646987340621	4.255791154252
0	5608	6675.342248997218	0.695261656597
0	5610	6676.462216357725	1.119967360507
0	5614	6681.302031057452	4.839814699727
0	5615	6684.115288142826	2.813257085374
0	5616	6686.20195296258	2.086664819754
0	5623	6688.10766250109	1.90570953851
0	5627	6691.170592591591	3.062930090501
0	5628	6691.420350309935	0.249757718344
0	5632	6703.270007829501	11.849657519566
0	5633	6705.52729749434	2.257289664839
0	5640	6710.385971309505	4.858673815165
0	5641	6711.908187827637	1.522216518132
0	5645	6714.05083759479	2.142649767153
0	5649	6720.630288472212	6.579450877422
0	5650	6722.317373282297	1.687084810085
0	5660	6728.748891319151	6.431518036854
0	5664	6728.849233921667	0.100342602516
0	5665	6732.568766591504	3.719532669837
0	5672	6745.348817645481	12.780051053977
0	5682	6746.678492270908	1.329674625427
0	5683	6751.960551963681	5.282059692773
0	5684	6752.688579417399	0.728027453718
0	5691	6758.647868663611	5.959289246212
0	5692	6759.241765801273	0.593897137662
0	5693	6761.192219379622	1.950453578349
0	5694	6763.165884346146	1.973664966524
0	5695	6763.471052587218	0.305168241072
0	5696	6763.922211159273	0.451158572055
0	5706	6783.355917142117	19.433705982844
0	5707	6784.035982690172	0.680065548055
0	5717	6793.15666520222	9.120682512048
0	5718	6794.023899465915	0.867234263695
0	5725	6799.355215865028	5.331316399113
0	5726	6800.716203560475	1.360987695447
0	5733	6803.242645979073	2.526442418598
0	5734	6804.570963751533	1.32831777246
0	5744	6809.989464790492	5.418501038959
0	5757	6820.686492032817	10.697027242325
0	5759	6821.632980952568	0.946488919751
0	5761	6822.700440260984	1.067459308416
0	5765	6824.116023473015	1.415583212031
0	5767	6825.974429865267	1.858406392252
0	5772	6831.437503221908	5.463073356641
0	5774	6834.817408395337	3.379905173429
0	5778	6839.494000674069	4.676592278732
0	5780	6839.624260209343	0.130259535274
0	5783	6842.298397335529	2.674137126186
0	5785	6843.687376950277	1.388979614748
0	5789	6846.288763739149	2.601386788872
0	5791	6847.384392601878	1.095628862729
0	5794	6849.680102721295	2.295710119417
0	5797	6851.628934713661	1.948831992366
0	5803	6861.621993172251	9.99305845859
0	5806	6863.875032260605	2.253039088354
0	5809	6875.009151177263	11.134118916658
0	5815	6890.036868150403	15.02771697314
0	5817	6890.612287430043	0.57541927964
0	5819	6893.058847065778	2.446559635735
0	5821	6894.207773626166	1.148926560388
0	5823	6896.120303983725	1.912530357559
0	5827	6903.007239307993	6.886935324268
0	5829	6903.837748003926	0.830508695933
0	5831	6905.171518524847	1.333770520921
0	5834	6906.961779507402	1.790260982555
0	5837	6908.871456368924	1.909676861522
0	5839	6909.016083870191	0.144627501267
0	5841	6911.64195268717	2.625868816979
0	5842	6912.363399883503	0.721447196333
0	5846	6914.013175043397	1.649775159894
0	5847	6914.557625128102	0.544450084705
0	5858	6926.85080790079	12.293182772688
0	5862	6931.208464503181	4.357656602391
0	5864	6936.895131966077	5.686667462896
0	5866	6939.046141709627	2.15100974355
0	5867	6943.961165592802	4.915023883175
0	5871	6944.959284030721	0.998118437919
0	5878	6947.671073786685	2.711789755964
0	5883	6949.62298781879	1.951914032105
0	5886	6952.283757786067	2.660769967277
0	5891	6972.166797611462	19.883039825395
0	5894	6977.122239408838	4.955441797376
0	5902	6995.920343653028	18.79810424419
0	5904	6996.130851834226	0.210508181198
0	5907	6999.591644951867	3.460793117641
0	5909	7000.236357596707	0.64471264484
0	5911	7005.459221748648	5.222864151941
0	5914	7010.123853492622	4.664631743974
0	5920	7014.543608207365	4.419754714743
0	5922	7015.09385171005	0.550243502685
0	5925	7024.062203152262	8.968351442212
0	5927	7024.088051525253	0.025848372991
0	5929	7025.791466313837	1.703414788584
0	5932	7029.268995622657	3.47752930882
0	5935	7035.558092409664	6.289096787007
0	5937	7037.398937573927	1.840845164263
0	5939	7038.108009984826	0.709072410899
0	5941	7038.296985104379	0.188975119553
0	5943	7038.840520624991	0.543535520612
0	5946	7039.729853970732	0.889333345741
0	5950	7043.852515457272	4.12266148654
0	5953	7044.599658134911	0.747142677639
0	5957	7050.775752899414	6.176094764503
0	5960	7052.745184529085	1.969431629671
0	5963	7057.005014299091	4.259829770006
0	5966	7058.425851073771	1.42083677468
0	5969	7059.093460162373	0.667609088602
0	5973	7063.302773538115	4.209313375742
0	5975	7063.525498375483	0.222724837368
0	5978	7073.782038404531	10.256540029048
0	5980	7080.239094011177	6.457055606646
0	5982	7080.589692811009	0.350598799832
0	5984	7082.070123129523	1.480430318514
0	5985	7083.012396686145	0.942273556622
0	5989	7084.932420234972	1.920023548827
0	5990	7085.671443793584	0.739023558612
0	5994	7087.728946477536	2.057502683952
0	5995	7091.777709397797	4.048762920261
0	5999	7093.106891811003	1.329182413206
0	6006	7098.898831141919	5.791939330916
0	6007	7099.510780708547	0.611949566628
0	6011	7100.630807186713	1.120026478166
0	6018	7105.489859349441	4.859052162728
0	6029	7115.065961946902	9.576102597461
0	6032	7115.695352666557	0.629390719655
0	6034	7116.625188951793	0.929836285236
0	6035	7118.414220659313	1.78903170752
0	6036	7120.324863978216	1.910643318903
0	6040	7126.890485155406	6.56562117719
0	6041	7128.973651665235	2.083166509829
0	6045	7131.888578341179	2.914926675944
0	6046	7133.685699791274	1.797121450095
0	6047	7134.258655085467	0.572955294193
0	6054	7137.3096504477	3.050995362233
0	6055	7138.784600518842	1.474950071142
0	6059	7140.266342939521	1.481742420679
0	6063	7140.418936938838	0.152593999317
0	6084	7151.736644982421	11.317708043583
0	6086	7151.991418834046	0.254773851625
0	6088	7152.207588559492	0.216169725446
0	6094	7162.228829699376	10.021241139884
0	6097	7164.917303465722	2.688473766346
0	6099	7166.235159339018	1.317855873296
0	6101	7168.019653594667	1.784494255649
0	6105	7171.588209370237	3.56855577557
0	6109	7172.384330336975	0.796120966738
0	6113	7175.245561837121	2.861231500146
0	6114	7175.414702904203	0.169141067082
0	6115	7176.190763011133	0.77606010693
0	6119	7176.385620894427	0.194857883294
0	6133	7193.745935475266	17.360314580839
0	6135	7199.532164984203	5.786229508937
0	6137	7206.231169542105	6.699004557902
0	6139	7206.420961400019	0.189791857914
0	6141	7210.499053123808	4.078091723789
0	6146	7213.054873891432	2.555820767624
0	6151	7218.775127116645	5.720253225213
0	6154	7221.628283157598	2.853156040953
0	6157	7226.606048109158	4.97776495156
0	6160	7229.086550210936	2.480502101778
0	6166	7240.66058686849	11.574036657554
0	6168	7242.707306026611	2.046719158121
0	6170	7244.963808136343	2.256502109732
0	6173	7245.635843913536	0.672035777193
0	6175	7249.720778326791	4.084934413255
0	6178	7252.27903161292	2.558253286129
0	6180	7252.341473619467	0.062442006547
0	6182	7257.903445925719	5.561972306252
0	6184	7262.147797843525	4.244351917806
0	6185	7263.675471092232	1.527673248707
0	6189	7270.015601925467	6.340130833235
0	6190	7270.564976326157	0.54937440069
0	6191	7273.251500345863	2.686524019706
0	6208	7287.745258210182	14.493757864319
0	6210	7288.025560308605	0.280302098423
0	6213	7288.492991314329	0.467431005724
0	6215	7289.390759831076	0.897768516747
0	6222	7294.843103692192	5.452343861116
0	6225	7306.048360086888	11.205256394696
0	6230	7313.358154402885	7.309794315997
0	6233	7315.573048927838	2.214894524953
0	6235	7317.349448911057	1.776399983219
0	6237	7318.751224798201	1.401775887144
0	6240	7323.683600203872	4.932375405671
0	6242	7324.960351289179	1.276751085307
0	6244	7328.626340458237	3.665989169058
0	6246	7329.779819284333	1.153478826096
0	6248	7330.083309560843	0.30349027651
0	6250	7334.174369491515	4.091059930672
0	6252	7334.480060882	0.305691390485
0	6257	7338.35136809811	3.87130721611
0	6262	7348.100989303622	9.749621205512
0	6265	7357.651766175598	9.550776871976
0	6267	7358.506846752133	0.855080576535
0	6271	7366.536595507734	8.029748755601
0	6275	7371.427823604344	4.89122809661
0	6278	7377.695801570212	6.267977965868
0	6280	7378.832590355946	1.136788785734
0	6282	7379.621154108406	0.78856375246
0	6286	7386.514269034222	6.893114925816
0	6289	7389.597474862847	3.083205828625
0	6293	7399.569015501247	9.9715406384
0	6295	7400.84463973641	1.275624235163
0	6297	7402.989446891754	2.144807155344
0	6299	7403.793740662103	0.804293770349
0	6301	7407.017272157623	3.22353149552
0	6305	7411.334606034947	4.317333877324
0	6312	7427.408907363552	16.074301328605
0	6314	7432.731695055593	5.322787692041
0	6318	7437.089838403122	4.358143347529
0	6320	7437.314813661321	0.224975258199
0	6323	7439.617949841798	2.303136180477
0	6325	7443.664890514213	4.046940672415
0	6329	7446.935564778372	3.270674264159
0	6331	7447.16590837981	0.230343601438
0	6333	7448.195124475741	1.029216095931
0	6334	7449.935349967063	1.740225491322
0	6335	7453.186446489489	3.251096522426
0	6339	7453.937034196805	0.750587707316
0	6340	7455.787534990893	1.850500794088
0	6344	7458.816183147592	3.028648156699
0	6345	7462.14998762877	3.333804481178
0	6352	7470.396804697503	8.246817068733
0	6353	7476.381827248318	5.985022550815
0	6354	7481.601851411634	5.220024163316
0	6355	7482.957547231784	1.35569582015
0	6362	7485.34060099736	2.383053765576
0	6369	7491.276393539405	5.935792542045
0	6373	7491.588820370973	0.312426831568
0	6377	7492.49202869142	0.903208320447
0	6381	7495.339191664799	2.847162973379
0	6382	7498.013399214291	2.674207549492
0	6392	7506.592991461463	8.579592247172
0	6399	7511.713834259029	5.120842797566
0	6400	7512.144895426185	0.431061167156
0	6401	7513.695213867698	1.550318441513
0	6405	7514.309048286515	0.613834418817
0	6409	7515.985407899817	1.676359613302
0	6410	7516.157293457576	0.171885557759
0	6417	7522.22617768217	6.068884224594
0	6424	7525.300932196416	3.074754514246
0	6425	7527.293825856498	1.992893660082
0	6429	7529.013209813087	1.719383956589
0	6439	7539.518829694124	10.505619881037
0	6440	7541.311463163153	1.792633469029
0	6450	7547.997006598017	6.685543434864
0	6451	7549.904362217396	1.907355619379
0	6458	7562.187700136402	12.283337919006
0	6466	7566.62882197044	4.441121834038
0	6468	7567.349663401505	0.720841431065
0	6473	7571.10464192149	3.754978519985
0	6479	7573.469527024918	2.364885103428
0	6482	7578.327118094362	4.857591069444
0	6488	7588.026627503405	9.699509409043
0	6490	7588.129322811575	0.10269530817
0	6492	7594.772077907649	6.642755096074
0	6494	7598.478769388085	3.706691480436
0	6498	7602.086742493184	3.607973105099
0	6502	7608.311191151181	6.224448657997
0	6504	7611.364076796409	3.052885645228
0	6506	7612.931802017374	1.567725220965
0	6510	7624.013290624882	11.081488607508
0	6512	7626.5783615872	2.565070962318
0	6514	7626.691461259421	0.113099672221
0	6519	7640.046583424933	13.355122165512
0	6521	7642.949438388639	2.902854963706
0	6524	7647.058676453257	4.109238064618
0	6526	7647.694937890927	0.63626143767
0	6528	7648.713038689628	1.018100798701
0	6530	7650.873961537344	2.160922847716
0	6534	7659.725336237685	8.851374700341
0	6538	7663.151374302647	3.426038064962
0	6540	7663.347606625209	0.196232322562
0	6542	7663.720294856267	0.372688231058
0	6545	7666.379120823889	2.658825967622
0	6549	7672.099021328239	5.71990050435
0	6554	7688.773800382651	16.674779054412
0	6557	7689.573965071289	0.800164688638
0	6559	7695.607694598617	6.033729527328
0	6561	7696.261678567545	0.653983968928
0	6565	7698.16522308274	1.903544515195
0	6568	7699.96304080498	1.79781772224
0	6571	7701.380726357639	1.417685552659
0	6573	7702.020260405446	0.639534047807
0	6576	7704.120488368182	2.100227962736
0	6582	7709.866029215085	5.745540846903
0	6584	7710.054964016301	0.188934801216
0	6587	7714.416288814563	4.361324798262
0	6590	7724.603760723417	10.187471908854
0	6595	7750.678578470976	26.074817747559
0	6597	7753.30043819534	2.621859724364
0	6599	7755.945600764436	2.645162569096
0	6601	7757.838265842318	1.892665077882
0	6603	7762.67230345096	4.834037608642
0	6606	7766.454899509885	3.782596058925
0	6608	7766.615462373349	0.160562863464
0	6614	7781.407960513633	14.792498140284
0	6616	7781.564174210326	0.156213696693
0	6618	7781.877957407903	0.313783197577
0	6621	7784.273633522847	2.395676114944
0	6623	7784.950415512955	0.676781990108
0	6625	7785.987903013801	1.037487500846
0	6626	7786.252468363047	0.264565349246
0	6627	7787.36538866297	1.112920299923
0	6631	7788.062038715924	0.696650052954
0	6638	7794.284292438702	6.222253722778
0	6645	7799.261844625148	4.977552186446
0	6649	7802.681907938021	3.420063312873
0	6655	7811.866219895884	9.184311957863
0	6657	7812.300797946209	0.434578050325
0	6661	7815.930178544076	3.629380597867
0	6664	7827.85401974431	11.923841200234
0	6666	7827.871523021395	0.017503277085
0	6669	7830.292937045606	2.421414024211
0	6671	7833.241960179551	2.949023133945
0	6675	7835.495701658084	2.253741478533
0	6676	7839.773749931278	4.278048273194
0	6677	7840.440225306016	0.666475374738
0	6678	7842.365733424231	1.925508118215
0	6688	7845.679629045246	3.313895621015
0	6695	7849.65382137521	3.974192329964
0	6703	7859.689731297349	10.035909922139
0	6709	7868.820603988171	9.130872690822
0	6711	7876.99307550758	8.172471519409
0	6713	7879.636122400085	2.643046892505
0	6715	7879.738553822801	0.102431422716
0	6718	7895.830837598734	16.092283775933
0	6722	7898.479732601273	2.648895002539
[...]
4	32853	40466.971680971841	0
4	32858	40470.791965430538	0
4	32861	40472.905018450299	7
4	32862	40474.349702983558	0
4	32863	40474.860020779238	1
4	32866	40477.797569039701	4
4	32869	40479.123736835014	2
4	32874	40480.543783651255	0
4	32879	40486.791524069735	2
4	32884	40494.957865522292	0
4	32885	40496.223499428632	5
4	32890	40504.206173853634	4
4	32893	40507.700476587656	3
4	32894	40508.608145198397	7
4	32903	40519.817642185988	2
4	32904	40522.493449857945	6
4	32905	40523.277662571134	7
4	32906	40531.130566808323	9
4	32907	40537.152533938056	0
4	32910	40541.827448275313	5
4	32913	40543.727776817675	2
4	32920	40554.008690990928	1
4	32925	40564.252038908506	7
4	32926	40565.576260435552	1
4	32929	40568.629567436861	3
4	32930	40573.645049290992	2
4	32935	40580.533331683164	4
4	32938	40581.154332288923	6
4	32946	40584.899052056699	5
4	32950	40586.917444482067	0
4	32953	40586.936874399165	9
4	32954	40587.738307742745	8
4	32957	40591.067780504668	3
4	32958	40593.110745144651	5
4	32959	40597.346565326693	6
4	32964	40599.835116210329	7
4	32965	40603.326318069273	2
4	32968	40604.707620872959	0
4	32969	40607.35595117768	3
4	32972	40609.847846050198	5
4	32973	40610.158104345417	1
4	32976	40617.073088608576	0
4	32979	40618.240196900597	4
4	32986	40631.618784578489	0
4	32987	40631.863530151593	5
4	32990	40636.386412857876	2
4	32991	40638.749363831507	4
4	32992	40644.373946799119	0
4	32993	40645.138760090936	8
4	32996	40648.207904351585	0
4	32999	40658.729423137833	0
4	33012	40682.688366046326	5
4	33020	40692.132787134656	2
4	33025	40696.521372788087	2
4	33028	40696.644933977516	1
4	33031	40697.055937862764	5
4	33032	40697.198185913146	4
4	33033	40700.913954371926	8
4	33034	40707.427469452936	3
4	33041	40710.342240128204	5
4	33044	40712.221034099072	5
4	33045	40712.376817251837	0
4	33046	40713.652652586127	7
4	33049	40721.293813947838	2
4	33052	40723.653238169161	6
4	33053	40725.493335247039	1
4	33060	40727.605617861282	4
4	33069	40734.696019294571	2
4	33073	40741.345069973148	8
4	33076	40741.866368878869	4
4	33081	40747.641573367817	4
4	33084	40747.727044403274	3
4	33087	40747.994218458935	5
4	33092	40756.725715105321	6
4	33095	40757.906027380613	7
4	33098	40758.90392425976	9
4	33099	40760.955469665222	5
4	33105	40762.023442779269	1
4	33110	40765.348075225905	5
4	33113	40768.433435304579	4
4	33116	40769.22482501065	2
4	33117	40769.959542224202	5
4	33120	40779.039455200611	0
4	33121	40779.753805839097	1
4	33122	40785.037016241355	8
4	33123	40787.80646059412	9
4	33124	40789.496357568157	2
4	33131	40809.308576876601	7
4	33134	40811.773160720444	4
4	33135	40815.535293550326	3
4	33136	40819.850151868849	6
4	33145	40830.417712685753	1
4	33152	40832.370538257254	6
4	33159	40841.495360946374	7
4	33162	40843.935212840694	8
4	33166	40846.465881608495	0
4	33169	40848.451428237343	1
4	33172	40849.91492918737	4
4	33175	40851.546129855108	1
4	33182	40867.851758276499	8
4	33185	40872.27104862166	7
4	33188	40873.520698710873	7
4	33191	40874.161567585741	7
4	33194	40874.380976965961	0
4	33195	40875.386743709442	8
4	33198	40877.209840136254	7
4	33199	40883.016014590361	9
4	33200	40884.66326380379	5
4	33201	40886.945281143056	3
4	33206	40890.207174608285	3
4	33207	40892.865041761004	6
4	33210	40903.735235702288	1
4	33217	40908.169850960745	7
4	33222	40918.439358250796	6
4	33223	40919.262646238806	4
4	33226	40928.782436846077	4
4	33229	40931.972568194907	2
4	33230	40933.534352753579	5
4	33231	40933.623414005335	1
4	33232	40937.042994466106	7
4	33233	40937.111356130086	0
4	33238	40941.245691227196	8
4	33241	40942.32996654526	0
4	33242	40943.436091265109	2
4	33245	40945.72138439295	1
4	33246	40946.773995449091	0
4	33247	40950.305722060186	4
4	33256	40959.868622221108	4
4	33265	40974.916642102578	3
4	33268	40975.318066202993	0
4	33269	40976.554070087392	6
4	33270	40978.738722513294	5
4	33279	40990.704625612964	8
4	33284	40997.336072840827	8
4	33285	41000.329427608304	9
4	33286	41000.453078911575	4
4	33287	41000.597367816988	1
4	33292	41009.391323795307	3
4	33299	41013.859274397017	7
4	33300	41016.649449132307	2
4	33301	41017.723880628228	8
4	33302	41019.94185496802	1
4	33303	41019.949288361186	4
4	33306	41023.677284236533	6
4	33315	41035.199868114181	3
4	33323	41043.692272372592	7
4	33326	41045.565455635028	0
4	33330	41050.993922597695	5
4	33333	41055.199778651894	4
4	33337	41057.352224054568	2
4	33341	41060.186605020144	2
4	33344	41064.446720244043	4
4	33347	41067.94435572699	1
4	33348	41070.17177046781	2
4	33353	41072.09573868709	6
4	33357	41074.928378005681	1
4	33360	41077.683734682808	3
4	33370	41095.017538993042	6
4	33374	41095.917678875759	9
4	33377	41095.920915181701	0
4	33380	41102.4379718675	3
4	33384	41113.699241814394	3
4	33387	41114.261991573144	2
4	33390	41114.663916996309	9
4	33393	41114.928933220786	5
4	33396	41115.354824705261	6
4	33400	41120.975773059717	2
4	33403	41121.857428412497	2
4	33404	41122.429859885179	3
4	33407	41124.542298379838	2
4	33408	41124.87513144926	5
4	33411	41131.380144735439	7
4	33418	41135.029081319846	3
4	33422	41137.798726954587	3
4	33426	41141.054615278975	6
4	33429	41141.933964196652	1
4	33430	41141.938165749962	8
4	33433	41142.678198801936	5
4	33438	41146.076707274134	6
4	33439	41146.349437709524	7
4	33445	41150.031849803451	7
4	33448	41151.105326422549	3
4	33452	41155.990303932509	5
4	33455	41156.726037817314	2
4	33456	41156.967534220554	3
4	33459	41158.107241886463	2
4	33460	41159.624326605188	9
4	33463	41160.780617346066	8
4	33468	41163.327219691111	7
4	33471	41167.397585417651	2
4	33472	41169.546612904631	7
4	33473	41169.634539259312	6
4	33478	41175.384936755067	4
4	33481	41177.145700089993	3
4	33482	41177.92611629684	8
4	33483	41181.780912908833	1
4	33490	41185.237578537151	0
4	33499	41190.019161941771	9
4	33502	41190.313135330835	7
4	33505	41193.4007268595	7
4	33506	41194.552713271337	2
4	33509	41198.173341477819	6
4	33514	41204.26586583774	9
4	33517	41209.15653002872	8
4	33521	41212.809766706613	7
4	33525	41216.683485463953	1
4	33530	41228.735382932721	2
4	33534	41232.988191948387	5
4	33540	41243.551735851538	6
4	33545	41251.009926225455	8
4	33548	41252.521664276737	0
4	33552	41252.839050682748	1
4	33555	41253.816411965479	3
4	33558	41267.357778839165	2
4	33561	41267.51473271235	7
4	33565	41269.3654307017	7
4	33568	41271.268865740023	0
4	33572	41277.437968221921	8
4	33575	41280.399282464976	1
4	33578	41283.174000423638	9
4	33581	41286.546464283398	2
4	33582	41287.422881558076	3
4	33583	41288.050467031904	8
4	33586	41291.078092701936	6
4	33594	41301.907269467933	0
4	33598	41306.372989203783	6
4	33601	41308.979084104242	4
4	33607	41318.995355853814	0
4	33612	41320.026407382139	2
4	33617	41327.511182971227	8
4	33620	41328.641136931207	3
4	33623	41329.642161171088	1
4	33627	41332.500492975697	0
4	33631	41334.341331289559	3
4	33634	41334.559817909596	6
4	33637	41340.791164541161	7
4	33641	41344.258582272676	8
4	33644	41346.09928191926	6
4	33645	41349.233092409459	5
4	33646	41349.985044666911	7
4	33653	41353.125458727941	6
4	33654	41355.549739753218	2
4	33660	41368.605188615182	9
4	33665	41373.920103774482	2
4	33668	41374.227865427369	7
4	33671	41375.666965362293	8
4	33674	41378.667303268859	2
4	33675	41379.506933261392	7
4	33681	41382.717887391833	1
4	33685	41389.480481436147	8
4	33688	41390.676688784791	3
4	33691	41391.163630055953	3
4	33692	41392.04273225847	2
4	33693	41392.506865980124	4
4	33698	41403.086429669369	9
4	33699	41405.86720588274	2
4	33700	41407.439370176992	8
4	33703	41408.996565084049	2
4	33704	41412.521463149214	6
4	33709	41425.792796903772	2
4	33712	41430.070800693176	1
4	33713	41431.273288197086	5
4	33718	41437.376737118397	2
4	33721	41445.88338236925	2
4	33726	41455.517601975223	5
4	33727	41455.587476290497	3
4	33732	41463.273346937098	7
4	33735	41474.341116925603	1
4	33738	41485.905822996116	2
4	33743	41488.241185317423	5
4	33746	41494.242978315802	0
4	33749	41494.996353726393	4
4	33752	41497.359401754001	6
4	33753	41498.851068296878	2
4	33756	41500.815182582048	4
4	33761	41505.187398168021	3
4	33762	41505.805218850201	1
4	33763	41506.479508720407	5
4	33764	41509.080488075461	2
4	33775	41520.851160418279	5
4	33776	41522.283813658105	9
4	33777	41522.509401831496	3
4	33782	41527.764696856409	4
4	33787	41528.722076256966	5
4	33788	41528.734180812806	1
4	33789	41533.905808080591	8
4	33790	41535.71898925716	7
4	33797	41551.500842118949	1
4	33798	41552.060541362012	6
4	33799	41552.141761569902	5
4	33802	41554.938776676025	7
4	33809	41562.792132803982	1
4	33810	41564.58039886523	0
4	33811	41570.185513076663	5
4	33816	41578.615577489016	3
4	33817	41580.857553946098	4
4	33818	41582.823593033621	1
4	33823	41587.876984584497	6
4	33826	41592.186628193527	3
4	33827	41596.235415356807	2
4	33834	41604.905072923388	9
4	33842	41613.005851928821	2
4	33846	41618.555520770229	1
4	33850	41623.919980051231	8
4	33853	41624.030686391039	3
4	33854	41624.932281876328	8
4	33855	41628.986875927781	2
4	33862	41636.568673067375	9
4	33863	41642.250991660957	3
4	33869	41651.784942058055	5
4	33872	41659.276286727293	3
4	33875	41660.052502959208	6
4	33876	41665.073231348049	5
4	33879	41672.516291911855	5
4	33884	41675.264812312417	3
4	33885	41677.365844215829	6
4	33890	41685.285711385657	3
4	33891	41685.361921797601	4
4	33892	41687.930434320763	5
4	33893	41689.144631214274	2
4	33900	41696.34316287882	9
4	33901	41698.093825183459	0
4	33904	41699.966359689868	0
4	33907	41704.414768127314	6
4	33908	41704.66444689826	8
4	33909	41706.039603795503	2
4	33912	41717.59999329857	1
4	33919	41737.748433886575	7
4	33922	41740.257749555165	2
4	33923	41743.187599550391	0
4	33926	41758.282319009295	3
4	33935	41775.460009034778	3
4	33936	41776.68204694433	8
4	33939	41779.549743891129	0
4	33942	41781.76642475086	1
4	33943	41784.490970497913	0
4	33946	41788.864403873431	3
4	33947	41793.455294262489	5
4	33948	41794.772478906903	4
4	33951	41801.206122880941	1
4	33954	41805.002911949315	2
4	33955	41808.524107496141	6
4	33956	41809.300236407317	9
4	33957	41823.833188591307	7
4	33966	41832.066105416354	4
4	33967	41832.875048230095	0
4	33972	41837.262145275616	2
4	33975	41838.482254692498	1
4	33982	41846.571217380902	1
4	33985	41847.242899914429	7
4	33986	41849.006896752592	6
4	33991	41854.681648187502	6
4	33994	41859.562649306127	1
4	33999	41867.127817038782	7
4	34002	41870.406334316161	0
4	34003	41871.747267579081	8
4	34013	41886.208527721025	7
4	34017	41888.02118800516	0
4	34021	41892.877996967033	9
4	34024	41899.903234183111	7
4	34027	41900.627571205624	8
4	34031	41902.518120398867	8
4	34036	41909.794198301927	6
4	34039	41910.356153614757	6
4	34043	41913.801082592735	7
4	34047	41921.328189256553	4
4	34051	41923.484398458109	6
4	34055	41926.079202943207	7
4	34060	41927.885194572833	2
4	34065	41939.003978543258	3
4	34068	41940.001614943827	1
4	34073	41946.951815808527	1
4	34076	41947.406960606377	6
4	34080	41951.427894279262	0
4	34083	41952.335622396293	6
4	34086	41957.442827422139	9
4	34087	41961.560103388856	2
4	34088	41965.398642080964	0
4	34095	41974.182513409995	2
4	34098	41976.532562329425	0
4	34099	41978.504561710428	4
4	34100	41979.772861752302	6
4	34101	41982.496405477176	8
4	34104	41983.246706332612	3
4	34105	41984.293149326834	2
4	34108	41984.51689337246	5
4	34109	41984.858516837134	2
4	34120	42005.094117132468	7
4	34125	42011.165937460829	4
4	34130	42015.753356774106	7
4	34134	42019.336904332936	0
4	34138	42021.608991033126	4
4	34141	42026.345551913944	9
4	34144	42028.125995112329	1
4	34145	42029.504851382497	0
4	34146	42030.652936738669	3
4	34147	42032.022051927678	2
4	34157	42041.476888088941	2
4	34160	42042.142594385443	4
4	34161	42043.390203502185	9
4	34164	42053.922956068357	5
4	34169	42064.383569749147	8
4	34173	42066.008909528536	5
4	34178	42071.730219687525	9
4	34181	42071.916377256412	2
4	34184	42076.834063101571	2
4	34185	42076.883001857617	3
4	34186	42078.911361867463	1
4	34187	42079.136234945076	5
4	34190	42082.234335899633	4
4	34191	42083.831842748332	0
4	34194	42088.770117733255	7
4	34195	42091.874415439072	0
4	34198	42095.596660241997	1
4	34201	42096.080399905454	1
4	34204	42097.861135373723	8
4	34207	42105.246309746917	1
4	34210	42107.550107413243	0
4	34211	42109.733504889407	9
4	34218	42128.147727803347	6
4	34221	42137.93800787621	1
4	34230	42155.076792455389	6
4	34233	42155.990564829241	7
4	34234	42157.386024325896	1
4	34235	42157.430292147312	0
4	34242	42162.535982706674	0
4	34247	42166.966950419406	3
4	34251	42170.389318267219	0
4	34257	42181.193264066555	8
4	34261	42181.820952233203	5
4	34264	42186.366511076395	9
4	34268	42191.008962475423	5
4	34271	42191.048585388088	7
4	34275	42192.962925459974	8
4	34279	42195.430072974678	4
4	34282	42199.335626082864	7
4	34285	42201.619160275349	8
4	34288	42205.101761183241	8
4	34292	42209.978836457369	0
4	34295	42210.058084196644	5
4	34298	42212.305037368007	2
4	34299	42212.778870397706	1
4	34300	42216.600811698749	5
4	34301	42222.96721466713	7
4	34306	42230.414123333601	1
4	34309	42233.352269259017	8
4	34312	42237.266471369774	2
4	34313	42238.755987227124	9
4	34314	42240.746413482671	4
4	34315	42240.846102323534	6
4	34316	42241.906216601242	5
4	34323	42253.80838972016	5
4	34324	42254.098782573663	4
4	34325	42254.341253983587	3
4	34328	42258.833320150157	2
4	34329	42261.139069241048	3
4	34330	42264.45747441936	1
4	34337	42281.383840242722	3
4	34342	42292.109613791521	1
4	34343	42292.14892328256	0
4	34344	42293.214900275428	2
4	34353	42296.601022660831	0
4	34354	42298.98140526796	2
4	34357	42303.67933779345	3
4	34360	42304.64275960095	1
4	34365	42317.288079954621	1
4	34366	42318.469122459018	0
4	34373	42331.332841197896	0
4	34374	42331.45814899358	5
4	34377	42338.603732297361	2
4	34378	42341.386883586418	1
4	34379	42341.912717258169	6
4	34382	42345.659471239566	3
4	34383	42346.569748294078	1
4	34386	42353.054332598038	1
4	34391	42367.340246939819	0
4	34394	42373.821976908531	2
4	34401	42381.191296245426	4
4	34404	42386.795972025841	0
4	34405	42391.838019656726	2
4	34410	42397.02423829312	0
4	34411	42399.034046541051	3
4	34412	42410.155648398342	2
4	34423	42413.777437405276	3
4	34424	42415.465779513566	5
4	34433	42422.63662625213	9
4	34439	42431.477316071101	2
4	34443	42435.395423111026	6
4	34447	42438.122857176511	3
4	34452	42447.540202089748	7
4	34457	42452.388058417286	5
4	34461	42464.954328465296	8
4	34464	42465.283252381768	9
4	34468	42472.642635282387	5
4	34475	42480.824326526743	7
4	34479	42483.833011578182	5
4	34484	42490.454462782148	9
4	34487	42495.97949384038	4
4	34490	42496.087951179203	9
4	34494	42503.629619859908	5
4	34497	42504.460209264194	2
4	34500	42507.783054881737	2
4	34504	42510.358270419512	2
4	34507	42511.095369534276	8
4	34510	42512.633701542267	6
4	34516	42517.568179800097	7
4	34519	42518.572505000129	6
4	34525	42537.256300587175	8
4	34530	42542.194785911118	6
4	34534	42543.253187953998	8
4	34541	42556.702455693512	1
4	34546	42558.541360191951	4
4	34549	42558.609060747539	9
4	34554	42566.327310665716	0
4	34557	42578.46653036693	3
4	34562	42584.898746010173	7
4	34565	42587.0595718017	7
4	34570	42591.341163411971	6
4	34573	42592.385169938991	8
4	34576	42595.373266999071	6
4	34579	42595.815594097495	2
4	34583	42598.177307249408	3
4	34586	42602.901310888308	2
4	34590	42604.577727464297	2
4	34593	42605.159472235434	5
4	34596	42606.684394415216	7
4	34599	42611.218213606784	6
4	34603	42616.695253769812	0
4	34607	42619.119893005793	5
4	34611	42627.771219980461	9
4	34614	42628.520895745929	9
4	34621	42637.305374533824	9
4	34624	42645.348446329033	5
4	34632	42651.90548112929	4
4	34636	42653.488691653595	9
4	34640	42658.054312835478	9
4	34643	42659.212549709722	1
4	34647	42664.289857502795	1
4	34650	42664.356040219774	5
4	34653	42665.085285330612	0
4	34656	42665.624081333087	2
4	34660	42668.368850017866	0
4	34664	42670.722288321959	6
4	34669	42674.189358354445	2
4	34672	42674.619345448403	7
4	34679	42682.029548438874	5
4	34683	42685.607337804977	8
4	34687	42689.1498051747	4
4	34690	42689.876106015282	8
4	34696	42694.924738397924	7
4	34700	42696.727764971218	0
4	34703	42699.274976811092	8
4	34706	42700.878609608584	9
4	34710	42707.392447365598	0
4	34714	42708.371604170217	3
4	34718	42711.829720301011	5
4	34721	42712.613355806376	2
4	34726	42719.552812747297	2
4	34731	42721.994994557468	7
4	34734	42722.191412388124	3
4	34737	42722.926281913694	8
4	34741	42731.527650017623	7
4	34745	42734.439009144357	4
4	34748	42734.848638455152	8
4	34751	42742.877791741449	8
4	34754	42743.124173888469	9
4	34758	42744.426743081426	6
4	34770	42758.307949409217	4
4	34773	42760.01730136709	2
4	34777	42764.500566256347	6
4	34780	42764.672865304943	5
4	34783	42770.139648558718	0
4	34786	42771.490354559059	1
4	34789	42771.869798931434	5
4	34792	42772.675822675325	1
4	34795	42772.679375999735	8
4	34798	42772.726454738581	8
4	34802	42773.618482270145	2
4	34810	42786.460149252736	1
4	34813	42786.655800415342	5
4	34816	42790.526980106783	5
4	34819	42790.603150508851	2
4	34823	42794.678679420239	9
4	34826	42795.431218650156	2
4	34830	42798.357684236815	3
4	34835	42801.377845434387	6
4	34839	42803.408467987992	8
4	34843	42805.528468433482	7
4	34847	42814.58163167702	1
4	34850	42819.68162571715	3
4	34853	42819.689561076049	1
4	34856	42822.834707994174	2
4	34857	42828.53918113715	7
4	34858	42828.882250062161	3
4	34863	42838.619502087009	9
4	34866	42840.437450600963	6
4	34871	42850.362310489959	4
4	34872	42850.749853935608	5
4	34873	42850.908991220716	2
4	34876	42854.177608590336	6
4	34879	42860.632872384699	4
4	34884	42873.011674813007	7
4	34885	42873.109871762559	8
4	34890	42876.393365415279	3
4	34891	42876.633938589753	7
4	34892	42878.890345930741	2
4	34895	42879.50654711771	5
4	34896	42881.662924896797	6
4	34897	42887.691152323555	0
4	34898	42889.134624886356	9
4	34907	42908.41056922732	4
4	34908	42908.471017633133	2
4	34909	42911.946379286757	0
4	34912	42915.780935985142	5
4	34915	42920.718740012753	3
4	34918	42926.163769432249	6
4	34929	42935.056183457422	5
4	34930	42937.07968405491	8
4	34933	42938.903589396585	3
4	34938	42951.657781209465	2
4	34945	42961.277546009501	3
4	34948	42967.535062012953	5
4	34951	42974.898329575681	6
4	34952	42976.278761089633	1
4	34953	42976.410093679264	4
4	34956	42979.052449274072	3
4	34957	42982.946248453542	1
4	34958	42985.107288409516	5
4	34972	42994.633514558073	8
4	34976	42995.825775960366	7
4	34979	42996.606730127019	6
4	34982	42996.927539135164	4
4	34987	43002.324113338128	5
4	34993	43015.897948015022	4
4	34997	43019.414091232583	2
4	35002	43022.701340460109	8
4	35005	43023.057738415109	8
4	35011	43026.706414671526	3
4	35014	43027.97451765831	3
4	35017	43028.052831241052	3
4	35020	43029.763927802144	3
4	35023	43031.654376028524	1
4	35027	43034.616794805921	9
4	35033	43037.154516580568	4
4	35037	43040.890104437758	0
4	35044	43047.411998065084	5
4	35052	43057.140141808895	3
4	35058	43070.54135559395	7
4	35061	43072.221345903467	5
4	35065	43076.858872326763	5
4	35068	43076.881126861602	2
4	35072	43080.579504876986	3
4	35075	43081.609481972739	1
4	35078	43084.948904610292	8
4	35081	43086.28597425304	4
4	35084	43088.270341751989	2
4	35088	43094.216604463149	8
4	35091	43094.987310647206	8
4	35094	43095.050789279411	0
4	35097	43096.005848812595	7
4	35100	43097.561648118767	4
4	35105	43101.096951043197	8
4	35109	43102.287840420868	7
4	35112	43104.008334182788	6
4	35115	43105.724604024736	0
4	35118	43106.178114903971	5
4	35121	43106.326046902043	2
4	35122	43106.621688419094	9
4	35123	43108.520662945328	4
4	35126	43110.580501436229	0
4	35131	43114.135787588127	2
4	35132	43116.003380539703	3
4	35135	43119.531778307436	0
4	35140	43129.330439729938	8
4	35143	43132.139082106342	8
4	35144	43134.870166599673	6
4	35149	43136.864348882432	1
4	35150	43140.196979023737	8
4	35151	43141.960181610072	5
4	35152	43142.527895271003	6
4	35155	43149.383017571004	0
4	35156	43150.040263183875	2
4	35157	43155.494735485693	1
4	35164	43163.539444307643	1
4	35169	43175.991664524625	3
4	35174	43181.632681774188	7
4	35177	43183.073171988365	4
4	35178	43184.208921633881	7
4	35183	43192.09430392549	2
4	35186	43196.258998781081	4
4	35189	43198.262153786243	2

