version 2
run General-5-20180202-18:51:49-11116
attr configname General
attr datetime 20180202-18:51:49
attr experiment General
attr inifile carrefour.ini
attr iterationvars $0=10
attr iterationvarsf 10-
attr measurement $0=10
attr network Carrefour
attr processid 11116
attr repetition 1
attr replication #1
attr resultdir results
attr runnumber 5
attr seedset 5
param **.lambda 10
param **.numeroCasse 10
param **.mu 30
param **.tipoSimulazione 0
param **.delay 0
param **.ServiceType 0

vector 0 Carrefour.coda 1_Lambda:vector ETV
attr source Interarrivals
attr title "1/lambda, vector"
vector 1 Carrefour.coda E_Nq:vector ETV
attr source QueueLenght
attr title "E[Nq], vector"
vector 2 Carrefour.coda E_W:vector ETV
attr source Queuing
attr title "E[W], vector"
vector 3 Carrefour.decisore E_R:vector ETV
attr source TotalTime
attr title "E[R], vector"
vector 4 Carrefour.decisore ActiveTillStat:vector ETV
attr source ActiveTill
attr title "Active Till, vector"
0	1	7	7
0	3	8.659197591078	1.659197591078
0	5	10.103150262187	1.443952671109
0	7	15.664613723666	5.561463461479
0	10	36.208942719653	20.544328995987
0	12	49.077553735818	12.868611016165
0	17	110.21362208531	61.136068349492
0	20	118.316693127207	8.103071041897
0	23	140.693849783725	22.377156656518
0	27	166.771974421717	26.078124637992
0	30	170.930101715699	4.158127293982
0	32	175.650478153212	4.720376437513
0	36	211.708679254418	36.058201101206
0	38	218.398862192795	6.690182938377
0	42	231.641576413893	13.242714221098
0	44	250.704915914884	19.063339500991
0	46	254.36220015609	3.657284241206
0	48	254.627220405369	0.265020249279
0	50	267.43799949533	12.810779089961
0	52	269.245777783196	1.807778287866
0	55	278.830110218989	9.584332435793
0	57	280.707017396628	1.876907177639
0	59	282.017223768947	1.310206372319
0	63	286.193405113874	4.176181344927
0	67	291.374164524469	5.180759410595
0	70	304.543484732168	13.169320207699
0	72	305.333090496303	0.789605764135
0	76	311.860994287659	6.527903791356
0	79	314.551012354469	2.69001806681
0	86	336.062214889443	21.511202534974
0	89	339.692680167024	3.630465277581
0	92	359.160119035011	19.467438867987
0	95	366.626856951514	7.466737916503
0	99	378.1205630965	11.493706144986
0	101	379.862473235317	1.741910138817
0	103	382.365346103109	2.502872867792
0	106	389.120006125613	6.754660022504
0	108	393.241804441709	4.121798316096
0	111	404.166104604527	10.924300162818
0	117	434.467143172867	30.30103856834
0	120	468.540682711141	34.073539538274
0	122	472.006954117081	3.46627140594
0	124	472.806673052264	0.799718935183
0	128	481.856163885846	9.049490833582
0	132	491.13246119736	9.276297311514
0	134	508.860578898733	17.728117701373
0	137	519.319155812072	10.458576913339
0	141	527.910241290415	8.591085478343
0	143	530.117290044	2.207048753585
0	146	537.176272749896	7.058982705896
0	149	556.385602044353	19.209329294457
0	153	567.786314027098	11.400711982745
0	157	584.612934779557	16.826620752459
0	159	590.492406286216	5.879471506659
0	161	598.498416461023	8.006010174807
0	163	600.088584115891	1.590167654868
0	166	608.958278628735	8.869694512844
0	168	610.965612336782	2.007333708047
0	170	618.992326347836	8.026714011054
0	173	622.060488190133	3.068161842297
0	179	632.124043266943	10.06355507681
0	184	667.797244892964	35.673201626021
0	186	668.33195162017	0.534706727206
0	190	686.285717603054	17.953765982884
0	192	686.44925674688	0.163539143826
0	194	687.286436471805	0.837179724925
0	196	703.118504013393	15.832067541588
0	199	716.551880861764	13.433376848371
0	201	721.546007365232	4.994126503468
0	206	748.435541256703	26.889533891471
0	208	758.139624628308	9.704083371605
0	211	768.760335462311	10.620710834003
0	215	790.142253322306	21.381917859995
0	219	807.404171057548	17.261917735242
0	222	823.329109494185	15.924938436637
0	224	824.631680116345	1.30257062216
0	227	838.442597245371	13.810917129026
0	229	839.007665979898	0.565068734527
0	233	840.986579138684	1.978913158786
0	236	855.74725892586	14.760679787176
0	238	874.571941346547	18.824682420687
0	242	899.803933353429	25.231992006882
0	244	905.519843241136	5.715909887707
0	246	907.27516020079	1.755316959654
0	249	919.346289551713	12.071129350923
0	251	921.022469701714	1.676180150001
0	253	921.837592177282	0.815122475568
0	256	935.683976230629	13.846384053347
0	258	940.064710049366	4.380733818737
0	261	947.450231838325	7.385521788959
0	263	947.904560629684	0.454328791359
0	269	961.174896253672	13.270335623988
0	273	971.269341890499	10.094445636827
0	277	982.080581495369	10.81123960487
0	279	985.183590417897	3.103008922528
0	284	1010.708244660946	25.524654243049
0	288	1029.950995619348	19.242750958402
0	290	1032.941789571353	2.990793952005
0	293	1053.36539313918	20.423603567827
0	295	1053.726098435512	0.360705296332
0	298	1067.751162504007	14.025064068495
0	300	1068.112355196817	0.36119269281
0	303	1076.095398880827	7.98304368401
0	305	1093.831845189277	17.73644630845
0	308	1097.358114821878	3.526269632601
0	312	1111.349804037336	13.991689215458
0	314	1111.781309670805	0.431505633469
0	319	1128.742140279709	16.960830608904
0	321	1131.686598532942	2.944458253233
0	323	1140.081181410388	8.394582877446
0	325	1141.004714139764	0.923532729376
0	328	1149.079336079306	8.074621939542
0	332	1151.631738498208	2.552402418902
0	337	1158.509204965713	6.877466467505
0	341	1174.95159683177	16.442391866057
0	343	1175.847988910561	0.896392078791
0	349	1209.008746219865	33.160757309304
0	351	1210.478250320297	1.469504100432
0	354	1216.625791775993	6.147541455696
0	357	1232.314851965141	15.689060189148
0	359	1235.049528746903	2.734676781762
0	362	1248.125403160721	13.075874413818
0	366	1272.906602969122	24.781199808401
0	368	1273.612444673882	0.70584170476
0	370	1278.538550801017	4.926106127135
0	372	1279.627542995664	1.088992194647
0	375	1286.044068487826	6.416525492162
0	379	1292.464949105809	6.420880617983
0	381	1294.337008089113	1.872058983304
0	383	1296.023262019346	1.686253930233
0	386	1299.591680136183	3.568418116837
0	388	1302.110337884473	2.51865774829
0	390	1305.763682301305	3.653344416832
0	393	1307.914190088219	2.150507786914
0	400	1315.408780821747	7.494590733528
0	402	1324.446887082853	9.038106261106
0	405	1331.549458854404	7.102571771551
0	407	1343.813134909955	12.263676055551
0	411	1347.522667385552	3.709532475597
0	415	1365.57394235986	18.051274974308
0	418	1370.617868632658	5.043926272798
0	423	1386.467316105989	15.849447473331
0	425	1387.62074388441	1.153427778421
0	429	1395.082956258686	7.462212374276
0	431	1396.947359783025	1.864403524339
0	433	1403.623283830432	6.675924047407
0	435	1405.066787563522	1.44350373309
0	440	1438.275766562682	33.20897899916
0	442	1438.888009979085	0.612243416403
0	445	1441.504593120144	2.616583141059
0	448	1457.205492646479	15.700899526335
0	452	1467.808230013005	10.602737366526
0	455	1480.107194186955	12.29896417395
0	458	1481.827432071912	1.720237884957
0	460	1487.875468621221	6.048036549309
0	464	1507.043055924693	19.167587303472
0	466	1509.631872860156	2.588816935463
0	469	1526.598592755681	16.966719895525
0	473	1530.743897224157	4.145304468476
0	476	1542.084305295223	11.340408071066
0	478	1556.672589284139	14.588283988916
0	483	1559.236997925385	2.564408641246
0	485	1561.030719726856	1.793721801471
0	487	1562.611448996746	1.58072926989
0	490	1568.837240465009	6.225791468263
0	492	1570.386465305879	1.54922484087
0	495	1582.884204010654	12.497738704775
0	499	1586.35513123673	3.470927226076
0	501	1587.393195214102	1.038063977372
0	503	1592.044885129753	4.651689915651
0	505	1592.958959383995	0.914074254242
0	507	1593.130935413321	0.171976029326
0	509	1594.106789192711	0.97585377939
0	512	1594.907262368468	0.800473175757
0	517	1603.463450055021	8.556187686553
0	522	1608.987180283695	5.523730228674
0	524	1616.953069601701	7.965889318006
0	526	1617.733727534832	0.780657933131
0	530	1620.784413779367	3.050686244535
0	535	1629.735859549863	8.951445770496
0	538	1651.887341919619	22.151482369756
0	540	1657.708503926028	5.821162006409
0	545	1666.843317825237	9.134813899209
0	548	1684.403583773322	17.560265948085
0	550	1688.483609371789	4.080025598467
0	555	1700.335901332072	11.852291960283
0	558	1718.597418748663	18.261517416591
0	560	1719.400489531586	0.803070782923
0	563	1724.569646842483	5.169157310897
0	565	1732.104135172624	7.534488330141
0	570	1739.630516439305	7.526381266681
0	573	1747.880381458103	8.249865018798
0	576	1772.549818880898	24.669437422795
0	579	1785.777494309562	13.227675428664
0	581	1788.408716222699	2.631221913137
0	583	1791.39144173335	2.982725510651
0	585	1792.808692055804	1.417250322454
0	587	1793.505725682088	0.697033626284
0	591	1810.005999175293	16.500273493205
0	594	1813.866242012094	3.860242836801
0	596	1821.132474471667	7.266232459573
0	598	1821.635515287505	0.503040815838
0	601	1832.048211432115	10.41269614461
0	603	1833.905023346763	1.856811914648
0	609	1841.704381643142	7.799358296379
0	611	1843.598759507124	1.894377863982
0	615	1851.801069543904	8.20231003678
0	617	1868.841072587797	17.040003043893
0	620	1879.205726615809	10.364654028012
0	626	1909.624035032145	30.418308416336
0	628	1909.974860765647	0.350825733502
0	630	1911.928067796516	1.953207030869
0	632	1913.300425517998	1.372357721482
0	636	1932.450191907462	19.149766389464
0	638	1937.649918294064	5.199726386602
0	640	1940.315409828307	2.665491534243
0	644	1957.871554819535	17.556144991228
0	646	1959.847469201009	1.975914381474
0	648	1961.060888484985	1.213419283976
0	653	1971.822181060463	10.761292575478
0	659	1992.934772225411	21.112591164948
0	662	2002.331767288154	9.396995062743
0	665	2007.770427237916	5.438659949762
0	668	2010.536543389864	2.766116151948
0	671	2015.516801697404	4.98025830754
0	674	2021.89693989259	6.380138195186
0	678	2027.633922212923	5.736982320333
0	680	2038.65619181938	11.022269606457
0	683	2051.834417617201	13.178225797821
0	686	2068.95347192208	17.119054304879
0	689	2075.67006431643	6.71659239435
0	692	2088.39457788692	12.72451357049
0	694	2090.224967171132	1.830389284212
0	698	2099.116437081413	8.891469910281
0	701	2109.542780596482	10.426343515069
0	703	2114.514545077704	4.971764481222
0	706	2128.168304828742	13.653759751038
0	711	2159.55406015954	31.385755330798
0	715	2188.496710010917	28.942649851377
0	717	2192.499886870909	4.003176859992
0	719	2197.810735418054	5.310848547145
0	722	2200.657463637725	2.846728219671
0	724	2202.536051696458	1.878588058733
0	727	2233.157232428918	30.62118073246
0	730	2242.472986298563	9.315753869645
0	734	2271.242505065411	28.769518766848
0	739	2294.94104929802	23.698544232609
0	742	2304.464341077752	9.523291779732
0	744	2306.726069864506	2.261728786754
0	747	2311.211848344995	4.485778480489
0	749	2321.875996248673	10.664147903678
0	751	2321.949375769234	0.073379520561
0	753	2323.580964567826	1.631588798592
0	756	2327.220071841114	3.639107273288
0	760	2342.716137637962	15.496065796848
0	762	2346.789768161017	4.073630523055
0	765	2349.529084617625	2.739316456608
0	769	2361.439248806441	11.910164188816
0	774	2376.947901417394	15.508652610953
0	777	2382.077488407608	5.129586990214
0	779	2384.87639648835	2.798908080742
0	782	2393.229946797026	8.353550308676
0	784	2394.874111663636	1.64416486661
0	786	2398.28172973798	3.407618074344
0	792	2430.624800079875	32.343070341895
0	795	2443.792814986929	13.168014907054
0	799	2451.03050368949	7.237688702561
0	801	2470.321190027805	19.290686338315
0	804	2479.133534851646	8.812344823841
0	806	2480.186368839228	1.052833987582
0	808	2486.725237905678	6.53886906645
0	810	2487.706775806069	0.981537900391
0	812	2490.349663786374	2.642887980305
0	816	2496.877015426962	6.527351640588
0	819	2500.092511059184	3.215495632222
0	821	2513.472006710788	13.379495651604
0	826	2525.318084680686	11.846077969898
0	829	2545.879319300712	20.561234620026
0	832	2555.595382819502	9.71606351879
0	836	2600.215108915692	44.61972609619
0	840	2606.348349710758	6.133240795066
0	842	2611.441694341123	5.093344630365
0	844	2614.473078216608	3.031383875485
0	846	2617.536978505259	3.063900288651
0	848	2621.327422908102	3.790444402843
0	850	2627.945186670722	6.61776376262
0	853	2630.449482406642	2.50429573592
0	859	2640.276418993433	9.826936586791
0	861	2641.714709895096	1.438290901663
0	863	2641.721925670343	0.007215775247
0	865	2642.940467893002	1.218542222659
0	867	2649.21831219874	6.277844305738
0	869	2651.202255677923	1.983943479183
0	871	2653.776108440982	2.573852763059
0	877	2659.067658140065	5.291549699083
0	879	2661.802344467823	2.734686327758
0	888	2709.155445268972	47.353100801149
0	891	2710.983599638017	1.828154369045
0	893	2715.030492117603	4.046892479586
0	895	2719.187637119934	4.157145002331
0	897	2721.983243743211	2.795606623277
0	902	2733.534847385541	11.55160364233
0	906	2766.586090794157	33.051243408616
0	908	2768.494182137034	1.908091342877
0	910	2772.166212471111	3.672030334077
0	913	2776.563474052098	4.397261580987
0	915	2783.757424043589	7.193949991491
0	919	2805.889760514311	22.132336470722
0	922	2813.442408471134	7.552647956823
0	925	2815.029233916855	1.586825445721
0	927	2815.92870439116	0.899470474305
0	932	2830.230875647182	14.302171256022
0	935	2831.24057850528	1.009702858098
0	937	2838.497947333981	7.257368828701
0	939	2839.771868803704	1.273921469723
0	943	2850.292618745241	10.520749941537
0	946	2860.517430701236	10.224811955995
0	951	2883.424403346608	22.906972645372
0	953	2890.666260524188	7.24185717758
0	955	2899.267759631668	8.60149910748
0	958	2917.259715211967	17.991955580299
0	960	2930.979173968243	13.719458756276
0	964	2941.157060516911	10.177886548668
0	967	2954.093328598958	12.936268082047
0	969	2959.115420529635	5.022091930677
0	972	2960.385761084594	1.270340554959
0	974	2960.67634345994	0.290582375346
0	976	2961.739371961118	1.063028501178
0	978	2963.052732118445	1.313360157327
0	982	2970.553404325684	7.500672207239
0	987	2983.128805545982	12.575401220298
0	991	2987.866588134045	4.737782588063
0	993	2988.422029850128	0.555441716083
0	995	2990.35125286714	1.929223017012
0	1002	3020.507765704495	30.156512837355
0	1004	3030.395358735374	9.887593030879
0	1007	3038.805693836206	8.410335100832
0	1009	3040.873438822803	2.067744986597
0	1011	3046.037912418021	5.164473595218
0	1013	3061.837114406388	15.799201988367
0	1016	3062.955738756544	1.118624350156
0	1022	3100.912940064047	37.957201307503
0	1025	3110.172029851483	9.259089787436
0	1029	3115.305884022849	5.133854171366
0	1032	3120.693086454459	5.38720243161
0	1034	3135.745783795424	15.052697340965
0	1036	3138.739531434867	2.993747639443
0	1040	3150.365231175395	11.625699740528
0	1042	3153.849128030971	3.483896855576
0	1045	3161.527518580328	7.678390549357
0	1048	3166.515176011284	4.987657430956
0	1052	3173.691202644903	7.176026633619
0	1055	3176.856684016955	3.165481372052
0	1057	3178.684152473067	1.827468456112
0	1059	3183.204979169125	4.520826696058
0	1061	3183.229323182973	0.024344013848
0	1066	3189.14213345004	5.912810267067
0	1068	3190.061642424273	0.919508974233
0	1071	3195.885565455191	5.823923030918
0	1073	3198.539886008079	2.654320552888
0	1075	3199.099461797103	0.559575789024
0	1077	3202.104242724416	3.004780927313
0	1081	3213.598922402424	11.494679678008
0	1084	3221.711677015644	8.11275461322
0	1089	3229.666856612494	7.95517959685
0	1091	3235.45330424446	5.786447631966
0	1095	3244.137686827088	8.684382582628
0	1097	3251.474724544751	7.337037717663
0	1100	3264.940551213397	13.465826668646
0	1102	3266.758879215089	1.818328001692
0	1108	3282.227108852237	15.468229637148
0	1113	3301.303065242625	19.075956390388
0	1115	3316.302099570134	14.999034327509
0	1117	3320.571429676058	4.269330105924
0	1120	3333.6693723112	13.097942635142
0	1125	3367.050536157459	33.381163846259
0	1128	3406.510206419325	39.459670261866
0	1132	3419.382018237015	12.87181181769
0	1134	3425.169373133645	5.78735489663
0	1136	3425.190076043303	0.020702909658
0	1138	3428.72339217285	3.533316129547
0	1143	3440.490199223488	11.766807050638
0	1146	3457.132019371528	16.64182014804
0	1148	3466.296634563891	9.164615192363
0	1151	3471.898034678267	5.601400114376
0	1154	3486.980799198893	15.082764520626
0	1157	3519.38204063651	32.401241437617
0	1160	3534.300452995037	14.918412358527
0	1163	3543.246790537832	8.946337542795
0	1165	3554.058064125566	10.811273587734
0	1168	3577.950812456325	23.892748330759
0	1171	3584.094153780188	6.143341323863
0	1176	3593.628551114725	9.534397334537
0	1178	3597.470152039538	3.841600924813
0	1181	3603.077548148141	5.607396108603
0	1183	3607.140190157145	4.062642009004
0	1186	3634.035540645038	26.895350487893
0	1189	3635.541953865262	1.506413220224
0	1192	3648.213736853396	12.671782988134
0	1196	3664.813756338494	16.600019485098
0	1198	3665.935928347395	1.122172008901
0	1201	3669.326320702567	3.390392355172
0	1205	3700.225776841781	30.899456139214
0	1207	3705.702509611978	5.476732770197
0	1210	3730.870594886256	25.168085274278
0	1213	3736.791891534674	5.921296648418
0	1215	3739.410991865482	2.619100330808
0	1219	3745.742386810329	6.331394944847
0	1222	3756.27206275894	10.529675948611
0	1226	3770.71967990347	14.44761714453
0	1228	3771.268131432023	0.548451528553
0	1233	3807.508502366759	36.240370934736
0	1235	3812.447802381634	4.939300014875
0	1239	3838.647359899443	26.199557517809
0	1241	3858.209048461301	19.561688561858
0	1243	3860.611823939052	2.402775477751
0	1247	3869.474536250276	8.862712311224
0	1250	3876.001526679289	6.526990429013
0	1254	3884.86500686601	8.863480186721
0	1258	3914.462854765215	29.597847899205
0	1260	3917.01664447226	2.553789707045
0	1263	3922.663868676356	5.647224204096
0	1266	3926.979744266994	4.315875590638
0	1268	3941.606871031136	14.627126764142
0	1270	3942.582803973652	0.975932942516
0	1272	3965.380296584338	22.797492610686
0	1275	3969.344762986912	3.964466402574
0	1278	3978.554933467967	9.210170481055
0	1282	3986.580938117428	8.026004649461
0	1284	3991.185383360866	4.604445243438
0	1290	4025.041331035711	33.855947674845
0	1292	4025.303440614527	0.262109578816
0	1294	4034.327183267015	9.023742652488
0	1296	4037.831301074866	3.504117807851
0	1298	4040.1964795234	2.365178448534
0	1302	4047.634741546496	7.438262023096
0	1307	4058.577018599565	10.942277053069
0	1309	4067.375936190246	8.798917590681
0	1312	4089.975127898102	22.599191707856
0	1315	4096.920513918419	6.945386020317
0	1319	4112.357917018461	15.437403100042
0	1322	4137.087312944089	24.729395925628
0	1324	4145.651809639538	8.564496695449
0	1326	4158.306335558007	12.654525918469
0	1329	4161.251151409732	2.944815851725
0	1331	4168.049989926585	6.798838516853
0	1334	4175.494872169681	7.444882243096
0	1336	4179.234298627537	3.739426457856
0	1340	4196.988341034764	17.754042407227
0	1342	4199.354464150927	2.366123116163
0	1346	4208.409339815444	9.054875664517
0	1349	4219.851264641473	11.441924826029
0	1354	4228.48192543844	8.630660796967
0	1356	4229.96389594407	1.48197050563
0	1362	4244.273104732302	14.309208788232
0	1364	4244.973678614906	0.700573882604
0	1367	4249.456466800023	4.482788185117
0	1370	4258.802704218019	9.346237417996
0	1373	4260.69554533484	1.892841116821
0	1375	4261.390702815163	0.695157480323
0	1378	4263.229938090106	1.839235274943
0	1380	4274.083559657842	10.853621567736
0	1382	4276.869220875489	2.785661217647
0	1386	4285.298449583156	8.429228707667
0	1391	4307.38355389448	22.085104311324
0	1396	4321.423924776712	14.040370882232
0	1398	4334.962732405291	13.538807628579
0	1400	4360.706854663608	25.744122258317
0	1402	4361.933949727224	1.227095063616
0	1405	4367.553581796236	5.619632069012
0	1407	4374.040479190717	6.486897394481
0	1410	4380.412210125544	6.371730934827
0	1412	4383.742101309166	3.329891183622
0	1416	4394.2111834247	10.469082115534
0	1419	4410.901564069026	16.690380644326
0	1423	4420.635203983934	9.733639914908
0	1425	4420.689135427385	0.053931443451
0	1427	4421.302991942577	0.613856515192
0	1430	4424.603092392823	3.300100450246
0	1434	4452.314353613598	27.711261220775
0	1437	4455.292242584143	2.977888970545
0	1440	4458.891847936667	3.599605352524
0	1442	4467.872488550987	8.98064061432
0	1446	4473.283948794222	5.411460243235
0	1448	4479.013989575247	5.730040781025
0	1451	4483.524623207177	4.51063363193
0	1456	4499.153919129543	15.629295922366
0	1458	4505.414085178604	6.260166049061
0	1461	4525.573553979637	20.159468801033
0	1464	4538.882218895257	13.30866491562
0	1468	4548.823354498033	9.941135602776
0	1473	4564.737336419346	15.913981921313
0	1475	4566.717154624929	1.979818205583
0	1478	4580.288780079271	13.571625454342
0	1481	4585.228756066776	4.939975987505
0	1484	4596.269692895589	11.040936828813
0	1486	4604.573070801099	8.30337790551
0	1489	4608.013326293992	3.440255492893
0	1493	4626.002517341886	17.989191047894
0	1495	4630.471252287745	4.468734945859
0	1501	4682.296647002589	51.825394714844
0	1503	4690.135072944912	7.838425942323
0	1507	4705.636221238631	15.501148293719
0	1509	4715.215371569678	9.579150331047
0	1512	4754.922830494185	39.707458924507
0	1515	4759.085969376339	4.163138882154
0	1517	4759.719262154154	0.633292777815
0	1519	4771.427609209694	11.70834705554
0	1521	4772.354347419495	0.926738209801
0	1526	4795.770439263034	23.416091843539
0	1528	4797.339244990957	1.568805727923
0	1530	4798.170948682539	0.831703691582
0	1532	4804.49239544913	6.321446766591
0	1534	4807.560888806928	3.068493357798
0	1537	4815.305806490389	7.744917683461
0	1541	4823.897056635	8.591250144611
0	1544	4836.599179411715	12.702122776715
0	1546	4839.136042943748	2.536863532033
0	1552	4855.626174393258	16.49013144951
0	1555	4859.454967722083	3.828793328825
0	1559	4897.724210755959	38.269243033876
0	1563	4929.987033437723	32.262822681764
0	1565	4930.752595073937	0.765561636214
0	1569	4953.886896684765	23.134301610828
0	1572	4968.837513254483	14.950616569718
0	1574	4969.854480875309	1.016967620826
0	1576	4973.400209390809	3.5457285155
0	1580	4985.520281333267	12.120071942458
0	1582	5000.038508927837	14.51822759457
0	1585	5003.449359541692	3.410850613855
0	1590	5037.03055346547	33.581193923778
0	1592	5040.317435351945	3.286881886475
0	1596	5051.969754265716	11.652318913771
0	1598	5058.225838285195	6.256084019479
0	1600	5059.841590766985	1.61575248179
0	1603	5072.128316729347	12.286725962362
0	1605	5076.732714953143	4.604398223796
0	1608	5079.334640871146	2.601925918003
0	1610	5086.956614932136	7.62197406099
0	1612	5091.252729000293	4.296114068157
0	1616	5099.235931324799	7.983202324506
0	1618	5104.400536208897	5.164604884098
0	1620	5108.586563301916	4.186027093019
0	1629	5133.61328307521	25.026719773294
0	1632	5141.180659382784	7.567376307574
0	1634	5146.405873978388	5.225214595604
0	1637	5157.387624739954	10.981750761566
0	1639	5175.910423034125	18.522798294171
0	1642	5177.606767212176	1.696344178051
0	1645	5181.483854792374	3.877087580198
0	1647	5193.1379137206	11.654058928226
0	1651	5202.813532333842	9.675618613242
0	1653	5202.901672291273	0.088139957431
0	1656	5211.719886645111	8.818214353838
0	1659	5218.353249644256	6.633362999145
0	1661	5221.532610351567	3.179360707311
0	1663	5223.368278407811	1.835668056244
0	1668	5234.104238761272	10.735960353461
0	1671	5237.385204561304	3.280965800032
0	1673	5237.489091446275	0.103886884971
0	1676	5248.639077421235	11.14998597496
0	1680	5258.366793263662	9.727715842427
0	1682	5259.038037261358	0.671243997696
0	1686	5268.051418157992	9.013380896634
0	1688	5269.452014007502	1.40059584951
0	1695	5287.262106743442	17.81009273594
0	1698	5298.257032751177	10.994926007735
0	1701	5310.440317535473	12.183284784296
0	1703	5321.388457845386	10.948140309913
0	1707	5334.419527301838	13.031069456452
0	1709	5336.321250579116	1.901723277278
0	1712	5346.512056267355	10.190805688239
0	1714	5358.613128635364	12.101072368009
0	1717	5368.043238007684	9.43010937232
0	1719	5372.295962399705	4.252724392021
0	1722	5374.179663105494	1.883700705789
0	1726	5379.066364895558	4.886701790064
0	1729	5397.976369988704	18.910005093146
0	1731	5401.526061339738	3.549691351034
0	1734	5408.918986513327	7.392925173589
0	1738	5419.458428161967	10.53944164864
0	1742	5440.749716550891	21.291288388924
0	1744	5454.173857460555	13.424140909664
0	1746	5461.704567066974	7.530709606419
0	1748	5464.383736046386	2.679168979412
0	1752	5477.866785982248	13.483049935862
0	1755	5483.942861567276	6.076075585028
0	1758	5488.162023860581	4.219162293305
0	1764	5508.52751928238	20.365495421799
0	1766	5528.997368392057	20.469849109677
0	1768	5534.138998691417	5.14163029936
0	1770	5535.141141318573	1.002142627156
0	1774	5543.932320164693	8.79117884612
0	1777	5547.901631179245	3.969311014552
0	1780	5555.772508118152	7.870876938907
0	1783	5565.68825785111	9.915749732958
0	1785	5568.116093102866	2.427835251756
0	1789	5578.19732910352	10.081236000654
0	1793	5588.763897085204	10.566567981684
0	1796	5600.085459349607	11.321562264403
0	1798	5602.764405785762	2.678946436155
0	1800	5603.350305964622	0.58590017886
0	1802	5603.731019161416	0.380713196794
0	1806	5612.492868701071	8.761849539655
0	1808	5616.915725419425	4.422856718354
0	1810	5619.722639165841	2.806913746416
0	1814	5628.426423465117	8.703784299276
0	1818	5637.814518668866	9.388095203749
0	1820	5640.307931327009	2.493412658143
0	1827	5670.235179326576	29.927247999567
0	1829	5672.176186392097	1.941007065521
0	1834	5700.233284000412	28.057097608315
0	1836	5700.451702270768	0.218418270356
0	1839	5721.448702310833	20.997000040065
0	1841	5734.411497728194	12.962795417361
0	1844	5735.895898496121	1.484400767927
0	1846	5735.90048412476	0.004585628639
0	1849	5747.377334688256	11.476850563496
0	1851	5748.38414817552	1.006813487264
0	1853	5748.414669744114	0.030521568594
0	1855	5751.56581622941	3.151146485296
0	1862	5772.593595640633	21.027779411223
0	1864	5774.562462439678	1.968866799045
0	1866	5774.617639706656	0.055177266978
0	1868	5776.988388090901	2.370748384245
0	1870	5779.918236870178	2.929848779277
0	1872	5781.546938812047	1.628701941869
0	1882	5835.276780558063	53.729841746016
0	1884	5842.714797047249	7.438016489186
0	1886	5844.258987419247	1.544190371998
0	1888	5864.705890411906	20.446902992659
0	1891	5879.434794926273	14.728904514367
0	1894	5884.57559563275	5.140800706477
0	1896	5890.391342650212	5.815747017462
0	1900	5932.689244456341	42.297901806129
0	1903	5942.717423544968	10.028179088627
0	1907	5954.052183917461	11.334760372493
0	1909	5959.027136751563	4.974952834102
0	1911	5966.867231782441	7.840095030878
0	1915	5977.194409193044	10.327177410603
0	1917	5978.549118382796	1.354709189752
0	1920	5989.032012859689	10.482894476893
0	1922	6013.533258980608	24.501246120919
0	1925	6017.74369612164	4.210437141032
0	1930	6039.203534595021	21.459838473381
0	1932	6039.896922623008	0.693388027987
0	1937	6048.017239713179	8.120317090171
0	1939	6060.798981859299	12.78174214612
0	1941	6061.025180764854	0.226198905555
0	1946	6074.394215957752	13.369035192898
0	1948	6081.0179715018	6.623755544048
0	1950	6082.437072273136	1.419100771336
0	1952	6084.996049205681	2.558976932545
0	1956	6094.931571231554	9.935522025873
0	1958	6095.098530789266	0.166959557712
0	1963	6115.680647419344	20.582116630078
0	1965	6119.044145999668	3.363498580324
0	1967	6120.140757121802	1.096611122134
0	1970	6138.469026202561	18.328269080759
0	1973	6145.718557015176	7.249530812615
0	1976	6150.511052539363	4.792495524187
0	1980	6167.122630904322	16.611578364959
0	1985	6180.924518150232	13.80188724591
0	1988	6188.559431134067	7.634912983835
0	1990	6219.136196361755	30.576765227688
0	1993	6239.703968749791	20.567772388036
0	1995	6240.444279816948	0.740311067157
0	1997	6242.282309403245	1.838029586297
0	2002	6265.296190147179	23.013880743934
0	2004	6265.781283302647	0.485093155468
0	2007	6275.195086638899	9.413803336252
0	2012	6289.591434602914	14.396347964015
0	2015	6295.103818700928	5.512384098014
0	2019	6311.193287110235	16.089468409307
0	2023	6320.082344667242	8.889057557007
0	2025	6327.219722216226	7.137377548984
0	2027	6327.552490837186	0.33276862096
0	2029	6332.845875972093	5.293385134907
0	2031	6334.928743745076	2.082867772983
0	2036	6368.561369441057	33.632625695981
0	2038	6375.898759286009	7.337389844952
0	2040	6377.721846548323	1.823087262314
0	2044	6395.52721807061	17.805371522287
0	2047	6403.008150439916	7.480932369306
0	2049	6404.222359855822	1.214209415906
0	2054	6444.004136910697	39.781777054875
0	2058	6456.236595162003	12.232458251306
0	2060	6459.935108989845	3.698513827842
0	2062	6465.79825337647	5.863144386625
0	2064	6467.210523873966	1.412270497496
0	2068	6471.879847503396	4.66932362943
0	2070	6485.086444500651	13.206596997255
0	2072	6485.56624485631	0.479800355659
0	2074	6487.434282400854	1.868037544544
0	2077	6505.599103222912	18.164820822058
0	2083	6512.876879144769	7.277775921857
0	2085	6513.698983274315	0.822104129546
0	2092	6557.321716417758	43.622733143443
0	2094	6557.340744957979	0.019028540221
0	2096	6558.1962344247	0.855489466721
0	2098	6562.420572306346	4.224337881646
0	2101	6575.108390636588	12.687818330242
0	2103	6581.730370566849	6.621979930261
0	2106	6593.042211699067	11.311841132218
0	2110	6607.780021007396	14.737809308329
0	2112	6611.157672594033	3.377651586637
0	2114	6612.413212344178	1.255539750145
0	2121	6636.196225359586	23.783013015408
0	2123	6637.543476413106	1.34725105352
0	2125	6649.094330082545	11.550853669439
0	2127	6649.924155280165	0.82982519762
0	2130	6652.376873565492	2.452718285327
0	2132	6673.929786124274	21.552912558782
0	2137	6702.387265284412	28.457479160138
0	2140	6715.335239131099	12.947973846687
0	2142	6719.483493092745	4.148253961646
0	2144	6720.389140285957	0.905647193212
0	2146	6725.21645453331	4.827314247353
0	2149	6726.764890941909	1.548436408599
0	2152	6729.745236181465	2.980345239556
0	2156	6739.996746055066	10.251509873601
0	2163	6768.186501550288	28.189755495222
0	2165	6773.508485650864	5.321984100576
0	2167	6777.421905803212	3.913420152348
0	2170	6786.507459152471	9.085553349259
0	2173	6801.898852658523	15.391393506052
0	2178	6829.7555977142	27.856745055677
0	2180	6840.578040078692	10.822442364492
0	2182	6847.759398126915	7.181358048223
0	2184	6847.937200606887	0.177802479972
0	2186	6850.317537648297	2.38033704141
0	2191	6864.567238428886	14.249700780589
0	2193	6865.666615588288	1.099377159402
0	2196	6866.350984244194	0.684368655906
0	2198	6871.865814338717	5.514830094523
0	2202	6881.297776503492	9.431962164775
0	2205	6884.075639239759	2.777862736267
0	2207	6884.29262998208	0.216990742321
0	2211	6890.900627967002	6.607997984922
0	2215	6897.551521925706	6.650893958704
0	2217	6897.816729895642	0.265207969936
0	2219	6899.248701477551	1.431971581909
0	2223	6908.23816709978	8.989465622229
0	2227	6915.46260824773	7.22444114795
0	2229	6915.624386203846	0.161777956116
0	2233	6953.696428922156	38.07204271831
0	2236	6960.001191911624	6.304762989468
0	2238	6971.277003110868	11.275811199244
0	2240	6975.900249790976	4.623246680108
0	2243	6978.33682301238	2.436573221404
0	2246	6979.88572587649	1.54890286411
0	2248	6984.745977491727	4.860251615237
0	2250	6986.575499007955	1.829521516228
0	2252	6989.031975883828	2.456476875873
0	2255	6993.463105524252	4.431129640424
0	2262	7006.911920140509	13.448814616257
0	2265	7018.983639667826	12.071719527317
0	2267	7021.920871260386	2.93723159256
0	2271	7027.838669048867	5.917797788481
0	2273	7030.142875885486	2.304206836619
0	2277	7045.756178223789	15.613302338303
0	2281	7056.488537924256	10.732359700467
0	2284	7070.260115821279	13.771577897023
0	2286	7073.06804233762	2.807926516341
0	2288	7073.569103141163	0.501060803543
0	2291	7076.980790187634	3.411687046471
0	2299	7104.283692783858	27.302902596224
0	2301	7104.990208939925	0.706516156067
0	2304	7126.005442422728	21.015233482803
0	2307	7153.610691823782	27.605249401054
0	2309	7156.688740437866	3.078048614084
0	2313	7170.378063912399	13.689323474533
0	2315	7172.062989653642	1.684925741243
0	2317	7173.232685088018	1.169695434376
0	2321	7182.584841710799	9.352156622781
0	2323	7185.508790728365	2.923949017566
0	2325	7188.967753417815	3.45896268945
0	2327	7196.378386644127	7.410633226312
0	2331	7207.822327741585	11.443941097458
0	2334	7210.666459451405	2.84413170982
0	2338	7227.064626726185	16.39816727478
0	2341	7228.870402566554	1.805775840369
0	2344	7233.926845555172	5.056442988618
0	2346	7237.820460882496	3.893615327324
0	2350	7249.063595514905	11.243134632409
0	2352	7249.164102060257	0.100506545352
0	2355	7252.969984222571	3.805882162314
0	2357	7253.375059901491	0.40507567892
0	2360	7264.714026718874	11.338966817383
0	2362	7265.608348024625	0.894321305751
0	2367	7286.589614877611	20.981266852986
0	2372	7304.763928987475	18.174314109864
0	2375	7322.87684279105	18.112913803575
0	2377	7327.255179162944	4.378336371894
0	2380	7339.97009373606	12.714914573116
0	2383	7367.560577094315	27.590483358255
0	2385	7377.2817560868	9.721178992485
0	2390	7396.553047240097	19.271291153297
0	2393	7405.87459603825	9.321548798153
0	2395	7413.43815191976	7.56355588151
0	2397	7417.412306863052	3.974154943292
0	2399	7419.230923207901	1.818616344849
0	2405	7451.129557608088	31.898634400187
0	2407	7454.936501325221	3.806943717133
0	2411	7463.138641841677	8.202140516456
0	2413	7470.367479146752	7.228837305075
0	2415	7473.321617595439	2.954138448687
0	2419	7487.331156027826	14.009538432387
0	2423	7503.59262552965	16.261469501824
0	2427	7540.356758853936	36.764133324286
0	2429	7542.389798218481	2.033039364545
0	2431	7544.617694065776	2.227895847295
0	2434	7558.084814112358	13.467120046582
0	2436	7563.450298258916	5.365484146558
0	2443	7590.393317395576	26.94301913666
0	2445	7601.24395264714	10.850635251564
0	2448	7618.52784531475	17.28389266761
0	2450	7623.23269185295	4.7048465382
0	2453	7637.78924648547	14.55655463252
0	2455	7643.599598674224	5.810352188754
0	2457	7643.648799847874	0.04920117365
0	2459	7648.664869394953	5.016069547079
0	2465	7668.288335827476	19.623466432523
0	2467	7672.62598538877	4.337649561294
0	2470	7691.813872764207	19.187887375437
0	2474	7706.805355468892	14.991482704685
0	2476	7706.893395804474	0.088040335582
0	2478	7709.683688170223	2.790292365749
0	2481	7718.461257256221	8.777569085998
0	2484	7728.018934083135	9.557676826914
0	2486	7728.973763511312	0.954829428177
0	2489	7738.216131357482	9.24236784617
0	2494	7748.86536851243	10.649237154948
0	2498	7754.723492470588	5.858123958158
0	2500	7755.476497897488	0.7530054269
0	2502	7763.010029944019	7.533532046531
0	2506	7777.149389028456	14.139359084437
0	2508	7784.152227702382	7.002838673926
0	2510	7787.367670485594	3.215442783212
0	2512	7789.999890995263	2.632220509669
0	2514	7790.616450941541	0.616559946278
0	2517	7792.251270898285	1.634819956744
0	2521	7797.624683333079	5.373412434794
0	2526	7805.678634352745	8.053951019666
0	2528	7808.462095588875	2.78346123613
0	2531	7814.203877578845	5.74178198997
0	2533	7821.312355570042	7.108477991197
0	2539	7835.554122697743	14.241767127701
0	2541	7837.772082255798	2.217959558055
0	2544	7842.564305642577	4.792223386779
0	2548	7863.07139274584	20.507087103263
0	2554	7898.528234645818	35.456841899978
0	2556	7925.104540165641	26.576305519823
0	2558	7932.842807770155	7.738267604514
0	2561	7947.400750115017	14.557942344862
0	2564	7952.664124883968	5.263374768951
0	2567	7962.235625773278	9.57150088931
0	2569	7962.974910569978	0.7392847967
0	2571	7966.746473398133	3.771562828155
0	2573	7967.355157576517	0.608684178384
0	2575	7971.304575684638	3.949418108121
0	2582	8009.191786917754	37.887211233116
0	2584	8011.098789430067	1.907002512313
0	2586	8011.818765613417	0.71997618335
0	2588	8012.006928226063	0.188162612646
0	2592	8054.957761722231	42.950833496168
0	2594	8059.092159718861	4.13439799663
0	2597	8068.296833421443	9.204673702582
0	2601	8075.495007298448	7.198173877005
0	2606	8101.402846713023	25.907839414575
0	2608	8110.223312684842	8.820465971819
0	2610	8122.437676063982	12.21436337914
0	2614	8130.440504088374	8.002828024392
0	2618	8136.545570075437	6.105065987063
0	2620	8141.983087679533	5.437517604096
0	2624	8159.637450822375	17.654363142842
0	2626	8169.839720158959	10.202269336584
0	2628	8170.141353068047	0.301632909088
0	2630	8170.233990405181	0.092637337134
0	2635	8178.939338598496	8.705348193315
0	2637	8183.453294173908	4.513955575412
0	2640	8188.313954244387	4.860660070479
0	2644	8192.364621829044	4.050667584657
0	2646	8199.409850993087	7.045229164043
0	2649	8214.559960904245	15.150109911158
0	2654	8250.251066604589	35.691105700344
0	2656	8256.977173602603	6.726106998014
0	2659	8258.946218294136	1.969044691533
0	2663	8277.790995984838	18.844777690702
0	2666	8281.134758718633	3.343762733795
0	2668	8285.682026996813	4.54726827818
0	2670	8292.489303858269	6.807276861456
0	2673	8307.183061406133	14.693757547864
0	2677	8330.67144438703	23.488382980897
0	2679	8343.958912559463	13.287468172433
0	2681	8348.237808650693	4.27889609123
0	2683	8352.847814401048	4.610005750355
0	2685	8353.369482190676	0.521667789628
0	2688	8367.763372247539	14.393890056863
0	2692	8377.421160252345	9.657788004806
0	2696	8386.465476648038	9.044316395693
0	2698	8386.580634299972	0.115157651934
0	2703	8397.284706778195	10.704072478223
0	2708	8407.136611435981	9.851904657786
0	2710	8413.014227600085	5.877616164104
0	2713	8416.051123048339	3.036895448254
0	2715	8417.470603630681	1.419480582342
0	2719	8427.37771636687	9.907112736189
0	2723	8441.284424856604	13.906708489734
0	2725	8447.661480004014	6.37705514741
0	2727	8449.609117441284	1.94763743727
0	2730	8457.461658776689	7.852541335405
0	2736	8476.438134692934	18.976475916245
0	2738	8480.267016166532	3.828881473598
0	2740	8480.526230215509	0.259214048977
0	2742	8483.826681671675	3.300451456166
0	2748	8506.892608764002	23.065927092327
0	2751	8514.264441646731	7.371832882729
0	2753	8517.73552276022	3.471081113489
0	2756	8535.130441059746	17.394918299526
0	2758	8537.368440714499	2.237999654753
0	2762	8571.681347770851	34.312907056352
0	2766	8580.675671115614	8.994323344763
0	2770	8621.136757692528	40.461086576914
0	2772	8622.443586675937	1.306828983409
0	2774	8623.055822369377	0.61223569344
0	2777	8631.578875096771	8.523052727394
0	2781	8648.359127984618	16.780252887847
0	2783	8648.702561743778	0.34343375916
0	2786	8668.769184298408	20.06662255463
0	2789	8686.124821744963	17.355637446555
0	2791	8686.446417954609	0.321596209646
0	2793	8691.051092550654	4.604674596045
0	2797	8701.024699855795	9.973607305141
0	2803	8764.447009301079	63.422309445284
0	2805	8765.799925355788	1.352916054709
0	2809	8778.845891906294	13.045966550506
0	2812	8786.710739266801	7.864847360507
0	2814	8797.488698087094	10.777958820293
0	2816	8799.204915445198	1.716217358104
0	2819	8818.463860174176	19.258944728978
0	2823	8833.080423882272	14.616563708096
0	2825	8839.212027234019	6.131603351747
0	2829	8849.904828190241	10.692800956222
0	2833	8878.902376281208	28.997548090967
0	2836	8893.742743104849	14.840366823641
0	2838	8907.172621911615	13.429878806766
0	2840	8907.330934467254	0.158312555639
0	2843	8920.826027599106	13.495093131852
0	2845	8924.226855199673	3.400827600567
0	2847	8926.958873936935	2.732018737262
0	2849	8927.069234430198	0.110360493263
0	2852	8937.658978640514	10.589744210316
0	2854	8938.845174631726	1.186195991212
0	2857	8949.16625605697	10.321081425244
0	2864	8963.517840777059	14.351584720089
0	2866	8970.550759845986	7.032919068927
0	2868	8973.328130337418	2.777370491432
0	2873	8987.324230055015	13.996099717597
0	2875	8987.394686851342	0.070456796327
0	2879	9008.356618527254	20.961931675912
0	2882	9018.020432512454	9.6638139852
0	2884	9018.046077805581	0.025645293127
0	2886	9022.966281569658	4.920203764077
0	2888	9023.007254845481	0.040973275823
0	2893	9038.851300166498	15.844045321017
0	2895	9039.537755896453	0.686455729955
0	2897	9041.952247552424	2.414491655971
0	2901	9046.13139188735	4.179144334926
0	2904	9066.15570240653	20.02431051918
0	2909	9096.654117096179	30.498414689649
0	2911	9098.04610538273	1.391988286551
0	2916	9132.481307202632	34.435201819902
0	2918	9137.473263598181	4.991956395549
0	2920	9160.684922284602	23.211658686421
0	2923	9171.082997939566	10.398075654964
0	2926	9175.0817572729	3.998759333334
0	2928	9177.08286450427	2.00110723137
0	2930	9178.063477175578	0.980612671308
0	2932	9180.686858674294	2.623381498716
0	2938	9200.685809810758	19.998951136464
0	2940	9201.204376328689	0.518566517931
0	2947	9247.372600708732	46.168224380043
0	2949	9248.744448304977	1.371847596245
0	2951	9254.399827810729	5.655379505752
0	2954	9257.959653827784	3.559826017055
0	2957	9263.665159336491	5.705505508707
0	2959	9263.879049541269	0.213890204778
0	2961	9272.694941308185	8.815891766916
0	2963	9273.895527094879	1.200585786694
0	2965	9275.470776070217	1.575248975338
0	2968	9278.116332892832	2.645556822615
0	2972	9298.790212386748	20.673879493916
0	2978	9319.177859420237	20.387647033489
0	2981	9326.341354820149	7.163495399912
0	2983	9336.897550382764	10.556195562615
0	2985	9345.697251638901	8.799701256137
0	2988	9351.297715279393	5.600463640492
0	2994	9377.992827553433	26.69511227404
0	2997	9413.636344362204	35.643516808771
0	2999	9421.256638559929	7.620294197725
0	3001	9428.443693991287	7.187055431358
0	3003	9428.679805622059	0.236111630772
0	3008	9433.552141529261	4.872335907202
0	3010	9434.496720176174	0.944578646913
0	3014	9441.141191177296	6.644471001122
0	3017	9447.821552506103	6.680361328807
0	3019	9449.105233557265	1.283681051162
0	3021	9451.368278160715	2.26304460345
0	3023	9455.14732415133	3.779045990615
0	3026	9456.890660139865	1.743335988535
0	3028	9460.672780910265	3.7821207704
0	3030	9467.255390163101	6.582609252836
0	3032	9471.203836788846	3.948446625745
0	3034	9472.894136754968	1.690299966122
0	3039	9482.217830669323	9.323693914355
0	3043	9498.469259812815	16.251429143492
0	3047	9503.392510932149	4.923251119334
0	3051	9522.554898946456	19.162388014307
0	3055	9540.123883683524	17.568984737068
0	3058	9549.564510527714	9.44062684419
0	3062	9560.046143892413	10.481633364699
0	3065	9563.326660674381	3.280516781968
0	3067	9563.408354786595	0.081694112214
0	3071	9587.339872542258	23.931517755663
0	3075	9600.297444467165	12.957571924907
0	3078	9624.15674765049	23.859303183325
0	3080	9626.617572198568	2.460824548078
0	3083	9640.363534229334	13.745962030766
0	3086	9687.19090863062	46.827374401286
0	3088	9691.38742882214	4.19652019152
0	3093	9722.912824655669	31.525395833529
0	3095	9722.952559890748	0.039735235079
0	3098	9735.374076377631	12.421516486883
0	3100	9744.574965590788	9.200889213157
0	3103	9757.557299043591	12.982333452803
0	3105	9761.706349762631	4.14905071904
0	3110	9774.70725678222	13.000907019589
0	3112	9775.406680909934	0.699424127714
0	3114	9777.421105257701	2.014424347767
0	3120	9815.411556650229	37.990451392528
0	3122	9822.559995846935	7.148439196706
0	3125	9827.927128624898	5.367132777963
0	3128	9841.512731388935	13.585602764037
0	3132	9870.483856821994	28.971125433059
0	3134	9874.554921560844	4.07106473885
0	3137	9880.934163293325	6.379241732481
0	3142	9906.561744978782	25.627581685457
0	3144	9934.486020703344	27.924275724562
0	3147	9959.720305728688	25.234285025344
0	3149	9963.530467282841	3.810161554153
0	3151	9964.668914345188	1.138447062347
0	3153	9965.486749881845	0.817835536657
0	3157	9977.851994997686	12.365245115841
0	3159	9979.776208731717	1.924213734031
0	3161	9979.873833652524	0.097624920807
0	3166	9992.631736324145	12.757902671621
0	3168	9994.076759879989	1.445023555844
0	3172	10005.585711619241	11.508951739252
0	3174	10005.763924215838	0.178212596597
0	3176	10010.490477109429	4.726552893591
0	3178	10011.557931855076	1.067454745647
0	3181	10017.681290825626	6.12335897055
0	3188	10043.359716935052	25.678426109426
0	3193	10129.662894675022	86.30317773997
0	3195	10137.488945709793	7.826051034771
0	3199	10160.707693793439	23.218748083646
0	3202	10170.380758949643	9.673065156204
0	3204	10180.328545868586	9.947786918943
0	3206	10180.515342267045	0.186796398459
0	3210	10203.178891733711	22.663549466666
0	3212	10211.52370523477	8.344813501059
0	3214	10223.210594585461	11.686889350691
0	3217	10238.331133215236	15.120538629775
0	3219	10244.211649555582	5.880516340346
0	3222	10246.754888665128	2.543239109546
0	3226	10258.381070234594	11.626181569466
0	3229	10261.69758681225	3.316516577656
0	3231	10261.771106953165	0.073520140915
0	3234	10266.496736455381	4.725629502216
0	3239	10305.93646527501	39.439728819629
0	3241	10308.132206556415	2.195741281405
0	3244	10315.273339410877	7.141132854462
0	3246	10317.002819838025	1.729480427148
0	3248	10319.529553416585	2.52673357856
0	3252	10330.464870694184	10.935317277599
0	3255	10333.187461215087	2.722590520903
0	3260	10354.497792338962	21.310331123875
0	3263	10355.478216249889	0.980423910927
0	3267	10383.922430043248	28.444213793359
0	3270	10388.878562920504	4.956132877256
0	3272	10396.826333673863	7.947770753359
0	3274	10399.329162178226	2.502828504363
0	3278	10410.207477998828	10.878315820602
0	3283	10434.681076191539	24.473598192711
0	3285	10465.647843492148	30.966767300609
0	3287	10478.589797058017	12.941953565869
0	3290	10493.168392301163	14.578595243146
0	3294	10497.019315604076	3.850923302913
0	3296	10499.74950018673	2.730184582654
0	3298	10500.012286181425	0.262785994695
0	3300	10502.02408614195	2.011799960525
0	3302	10503.467369044827	1.443282902877
0	3308	10520.781977635488	17.314608590661
0	3310	10527.31347605817	6.531498422682
0	3312	10530.442142507926	3.128666449756
0	3315	10538.71094006696	8.268797559034
0	3317	10540.200351257121	1.489411190161
0	3319	10548.768216234183	8.567864977062
0	3322	10554.546717489651	5.778501255468
0	3325	10565.507964916622	10.961247426971
0	3327	10565.960638411899	0.452673495277
0	3330	10573.972710333515	8.012071921616
0	3335	10582.153339236162	8.180628902647
0	3337	10582.61606207445	0.462722838288
0	3341	10586.382340273521	3.766278199071
0	3343	10588.926514835171	2.54417456165
0	3349	10600.810182115936	11.883667280765
0	3351	10610.504984417335	9.694802301399
0	3353	10612.363671954137	1.858687536802
0	3359	10618.697554282187	6.33388232805
0	3361	10627.083932901876	8.386378619689
0	3363	10627.650310575901	0.566377674025
0	3369	10692.981899201674	65.331588625773
0	3371	10696.094876538732	3.112977337058
0	3375	10711.396936264141	15.302059725409
0	3378	10714.898185254072	3.501248989931
0	3380	10717.511557919917	2.613372665845
0	3383	10727.786740079544	10.275182159627
0	3385	10728.333204613616	0.546464534072
0	3389	10740.71325211699	12.380047503374
0	3393	10760.797641974712	20.084389857722
0	3395	10760.991379762732	0.19373778802
0	3398	10765.476327164281	4.484947401549
0	3402	10775.347158888111	9.87083172383
0	3404	10786.66194882609	11.314789937979
0	3406	10791.362028611406	4.700079785316
0	3411	10801.244505293162	9.882476681756
0	3413	10801.675936539124	0.431431245962
0	3415	10802.140156200792	0.464219661668
0	3418	10802.825755609425	0.685599408633
0	3421	10820.473577331093	17.647821721668
0	3423	10822.895333419071	2.421756087978
0	3426	10827.657987388764	4.762653969693
0	3430	10834.23170533471	6.573717945946
0	3434	10856.485605036028	22.253899701318
0	3438	10869.47679685777	12.991191821742
0	3440	10875.812285406227	6.335488548457
0	3442	10878.640433378258	2.828147972031
0	3446	10889.729302229313	11.088868851055
0	3449	10907.402210714684	17.672908485371
0	3452	10918.466807930028	11.064597215344
0	3454	10920.699808460547	2.233000530519
0	3457	10926.907763267445	6.207954806898
0	3459	10927.782773002118	0.875009734673
0	3461	10938.508597302624	10.725824300506
0	3463	10939.459107050188	0.950509747564
0	3471	10971.628008323745	32.168901273557
0	3473	10986.962503209119	15.334494885374
0	3475	10988.832498786995	1.869995577876
0	3477	10992.863799857203	4.031301070208
0	3481	11017.693418206312	24.829618349109
0	3484	11023.860197851693	6.166779645381
0	3487	11030.862786567703	7.00258871601
0	3491	11034.936907525364	4.074120957661
0	3494	11041.426086409788	6.489178884424
0	3497	11054.731180875898	13.30509446611
0	3500	11061.276937734648	6.54575685875
0	3503	11070.351304367417	9.074366632769
0	3505	11080.335400221982	9.984095854565
0	3507	11084.806155383279	4.470755161297
0	3509	11088.600771432871	3.794616049592
0	3515	11113.766490945101	25.16571951223
0	3517	11114.904056435542	1.137565490441
0	3520	11130.925716963274	16.021660527732
0	3522	11137.259719481875	6.334002518601
0	3524	11137.748368478024	0.488648996149
0	3528	11148.647498711313	10.899130233289
0	3530	11152.589515935459	3.942017224146
0	3535	11164.754920564866	12.165404629407
0	3537	11176.860212093048	12.105291528182
0	3543	11207.494796791806	30.634584698758
0	3545	11212.463234324587	4.968437532781
0	3548	11230.985190003747	18.52195567916
0	3550	11232.32498798944	1.339797985693
0	3553	11239.636984118265	7.311996128825
0	3556	11243.019624948363	3.382640830098
0	3558	11244.177143011237	1.157518062874
0	3561	11246.311919168669	2.134776157432
0	3564	11251.432361992708	5.120442824039
0	3567	11257.027612034415	5.595250041707
0	3571	11259.651104105852	2.623492071437
0	3574	11270.694148747234	11.043044641382
0	3577	11272.604488209189	1.910339461955
0	3583	11295.94518655692	23.340698347731
0	3586	11308.595999804594	12.650813247674
0	3588	11317.247617033545	8.651617228951
0	3591	11323.494485494687	6.246868461142
0	3594	11333.820215003959	10.325729509272
0	3598	11349.067266095473	15.247051091514
0	3600	11349.65001407489	0.582747979417
0	3602	11349.831817379634	0.181803304744
0	3606	11377.468403927562	27.636586547928
0	3609	11388.714298633385	11.245894705823
0	3611	11389.172412997317	0.458114363932
0	3613	11392.819951530346	3.647538533029
0	3615	11400.457181710681	7.637230180335
0	3617	11403.316638636188	2.859456925507
0	3620	11411.529574198727	8.212935562539
0	3623	11421.51978021326	9.990206014533
0	3628	11425.927028169705	4.407247956445
0	3630	11430.483963886706	4.556935717001
0	3633	11443.376453049451	12.892489162745
0	3636	11448.044210274114	4.667757224663
0	3639	11449.195842848415	1.151632574301
0	3642	11452.988651432084	3.792808583669
0	3644	11453.748645833936	0.759994401852
0	3648	11478.294450938356	24.54580510442
0	3651	11480.354575460522	2.060124522166
0	3654	11496.006942994299	15.652367533777
0	3656	11499.127223117785	3.120280123486
0	3659	11511.383659125904	12.256436008119
0	3662	11513.924773781031	2.541114655127
0	3665	11516.640016538405	2.715242757374
0	3667	11518.381849850337	1.741833311932
0	3672	11520.846424264439	2.464574414102
0	3676	11531.740070255395	10.893645990956
0	3679	11539.042587430211	7.302517174816
0	3681	11539.7850982105	0.742510780289
0	3684	11574.152772746946	34.367674536446
0	3686	11588.216890666244	14.064117919298
0	3688	11593.290565971861	5.073675305617
0	3691	11594.214944358534	0.924378386673
0	3693	11598.402176584923	4.187232226389
0	3697	11602.531645473301	4.129468888378
0	3705	11652.296187285652	49.764541812351
0	3707	11655.983385584903	3.687198299251
0	3709	11663.449574232308	7.466188647405
0	3711	11672.079898361353	8.630324129045
0	3715	11679.953427081985	7.873528720632
0	3718	11704.856120765143	24.902693683158
0	3720	11705.715941981545	0.859821216402
0	3723	11729.966008103529	24.250066121984
0	3726	11743.385795214839	13.41978711131
0	3728	11745.176555857219	1.79076064238
0	3733	11768.743516830398	23.566960973179
0	3735	11785.644229204596	16.900712374198
0	3737	11787.189617802039	1.545388597443
0	3741	11804.843677202529	17.65405940049
0	3744	11812.766906688994	7.923229486465
0	3747	11813.845059673049	1.078152984055
0	3749	11816.429477285624	2.584417612575
0	3753	11828.031614463503	11.602137177879
0	3759	11856.361951476665	28.330337013162
0	3763	11883.908277031592	27.546325554927
0	3766	11912.583538826377	28.675261794785
0	3768	11927.905136704817	15.32159787844
0	3770	11939.511527400627	11.60639069581
0	3773	11952.566307151006	13.054779750379
0	3775	11956.319096287821	3.752789136815
0	3777	11958.628930996056	2.309834708235
0	3780	11990.96395612526	32.335025129204
0	3783	11997.983540067735	7.019583942475
0	3786	12005.593446284899	7.609906217164
0	3791	12008.686150777606	3.092704492707
0	3793	12012.674886435103	3.988735657497
0	3795	12012.781005020274	0.106118585171
0	3797	12020.790447687309	8.009442667035
0	3800	12026.158209358683	5.367761671374
0	3803	12030.149430878496	3.991221519813
0	3805	12032.204092519369	2.054661640873
0	3813	12059.83475946308	27.630666943711
0	3816	12073.980777221989	14.146017758909
0	3818	12077.852343566001	3.871566344012
0	3820	12085.109768985131	7.25742541913
0	3823	12091.476755636104	6.366986650973
0	3825	12095.494257886638	4.017502250534
0	3832	12133.605819203024	38.111561316386
0	3834	12134.837573672815	1.231754469791
0	3837	12156.881877962801	22.044304289986
0	3839	12157.095768802677	0.213890839876
0	3841	12158.479562846341	1.383794043664
0	3846	12180.666974029715	22.187411183374
0	3850	12188.133913652125	7.46693962241
0	3852	12212.603427190687	24.469513538562
0	3854	12216.358966692184	3.755539501497
0	3856	12216.380421806127	0.021455113943
0	3859	12223.405392653838	7.024970847711
0	3862	12226.511941571672	3.106548917834
0	3864	12226.521298864639	0.009357292967
0	3866	12230.930042256225	4.408743391586
0	3869	12238.413755777017	7.483713520792
0	3872	12244.98137791275	6.567622135733
0	3875	12251.377387412981	6.396009500231
0	3877	12254.295112643676	2.917725230695
0	3879	12257.547771981591	3.252659337915
0	3881	12258.713228413504	1.165456431913
0	3886	12272.560183071516	13.846954658012
0	3888	12283.18804445126	10.627861379744
0	3892	12296.180178405385	12.992133954125
0	3896	12307.633061516785	11.4528831114
0	3898	12310.154704247427	2.521642730642
0	3902	12319.566964352018	9.412260104591
0	3905	12323.820311707321	4.253347355303
0	3910	12330.320785992265	6.500474284944
0	3912	12333.143134884637	2.822348892372
0	3915	12335.483036427709	2.339901543072
0	3918	12342.716146918249	7.23311049054
0	3920	12348.576827782054	5.860680863805
0	3924	12361.298756334798	12.721928552744
0	3927	12369.214403837836	7.915647503038
0	3930	12373.409226394704	4.194822556868
0	3933	12374.224143778024	0.81491738332
0	3938	12401.651252529203	27.427108751179
0	3940	12407.9354044728	6.284151943597
0	3945	12421.993099504587	14.057695031787
0	3947	12426.837143303181	4.844043798594
0	3949	12430.036646716102	3.199503412921
0	3952	12431.872081467815	1.835434751713
0	3958	12467.358470146524	35.486388678709
0	3961	12503.990926363722	36.632456217198
0	3963	12517.863742619233	13.872816255511
0	3965	12526.372909101485	8.509166482252
0	3968	12533.640448118141	7.267539016656
0	3970	12545.860732405597	12.220284287456
0	3973	12547.537335148454	1.676602742857
0	3977	12555.566992386924	8.02965723847
0	3979	12557.759888484493	2.192896097569
0	3984	12562.40378470348	4.643896218987
0	3986	12565.066877378667	2.663092675187
0	3989	12577.114531896452	12.047654517785
0	3992	12589.413999501145	12.299467604693
0	3995	12590.535175958317	1.121176457172
0	3997	12590.775329203462	0.240153245145
0	4002	12628.945200317501	38.169871114039
0	4005	12639.10207691581	10.156876598309
0	4007	12639.817005043306	0.714928127496
0	4012	12655.43772451533	15.620719472024
0	4014	12666.02042396677	10.58269945144
0	4016	12667.400744521828	1.380320555058
0	4018	12667.771934462927	0.371189941099
0	4020	12669.598603276383	1.826668813456
0	4023	12674.515099143765	4.916495867382
0	4028	12688.591016848311	14.075917704546
0	4031	12716.038668367206	27.447651518895
0	4036	12738.118421180416	22.07975281321
0	4038	12743.466454598861	5.348033418445
0	4040	12743.918696826553	0.452242227692
0	4045	12765.291353201315	21.372656374762
0	4047	12766.044049828805	0.75269662749
0	4050	12788.080161097602	22.036111268797
0	4052	12796.893288453446	8.813127355844
0	4055	12805.208595744845	8.315307291399
0	4057	12812.206173643839	6.997577898994
0	4059	12814.641810689186	2.435637045347
0	4061	12814.785517943292	0.143707254106
0	4064	12837.528513430273	22.742995486981
0	4067	12839.993189069433	2.46467563916
0	4069	12840.928860859922	0.935671790489
0	4071	12841.92994086928	1.001080009358
0	4075	12850.957612660409	9.027671791129
0	4079	12852.392767884539	1.43515522413
0	4082	12854.918936388063	2.526168503524
0	4088	12889.596359529995	34.677423141932
0	4091	12923.139005836505	33.54264630651
0	4095	12926.633483133347	3.494477296842
0	4097	12930.107947663517	3.47446453017
0	4100	12947.884122212962	17.776174549445
0	4102	12948.900984335373	1.016862122411
0	4105	12971.144504010165	22.243519674792
0	4107	12971.539594093916	0.395090083751
0	4113	12998.282818797877	26.743224703961
0	4115	12998.837032689022	0.554213891145
0	4117	12999.129117226953	0.292084537931
0	4119	12999.664862340759	0.535745113806
0	4121	13008.001768452848	8.336906112089
0	4123	13011.846121382139	3.844352929291
0	4126	13015.962997554144	4.116876172005
0	4130	13024.617194012687	8.654196458543
0	4132	13025.666951021068	1.049757008381
0	4137	13041.299289531353	15.632338510285
0	4141	13048.515044374047	7.215754842694
0	4143	13053.878900762479	5.363856388432
0	4145	13055.331399846289	1.45249908381
0	4147	13057.581462389902	2.250062543613
0	4151	13075.540689389034	17.959226999132
0	4153	13082.063640181962	6.522950792928
0	4158	13094.588123916439	12.524483734477
0	4160	13094.748747005479	0.16062308904
0	4165	13110.097623970637	15.348876965158
0	4167	13114.618771522145	4.521147551508
0	4170	13124.588549490013	9.969777967868
0	4174	13153.36095314299	28.772403652977
0	4178	13168.771916334733	15.410963191743
0	4182	13189.439820779673	20.66790444494
0	4185	13205.62769343261	16.187872652937
0	4189	13228.012883707577	22.385190274967
0	4191	13231.519196065741	3.506312358164
0	4193	13233.430281942624	1.911085876883
0	4196	13238.260016452476	4.829734509852
0	4199	13246.643329925829	8.383313473353
0	4202	13251.809751536696	5.166421610867
0	4205	13266.85255677045	15.042805233754
0	4209	13292.613425441135	25.760868670685
0	4211	13308.522441135734	15.909015694599
0	4214	13322.580896619049	14.058455483315
0	4219	13355.259474379056	32.678577760007
0	4221	13356.010174104645	0.750699725589
0	4223	13360.027749477342	4.017575372697
0	4227	13383.702384455678	23.674634978336
0	4230	13386.574379315449	2.871994859771
0	4232	13386.691464285099	0.11708496965
0	4234	13396.63572570049	9.944261415391
0	4237	13404.037334362241	7.401608661751
0	4240	13405.646553397008	1.609219034767
0	4243	13421.897181445208	16.2506280482
0	4245	13424.382976606738	2.48579516153
0	4247	13430.319133952328	5.93615734559
0	4251	13436.07526052015	5.756126567822
0	4254	13441.156962373413	5.081701853263
0	4259	13466.8716866731	25.714724299687
0	4261	13467.219514778754	0.347828105654
0	4264	13474.104606738316	6.885091959562
0	4267	13474.920333329872	0.815726591556
0	4269	13486.478057179857	11.557723849985
0	4272	13493.272098956346	6.794041776489
0	4274	13493.504811047316	0.23271209097
0	4278	13506.661259918235	13.156448870919
0	4283	13521.293495174648	14.632235256413
0	4285	13533.549262284976	12.255767110328
0	4291	13541.603943803993	8.054681519017
0	4293	13553.688134398811	12.084190594818
0	4295	13557.071889794372	3.383755395561
0	4299	13571.437067676413	14.365177882041
0	4303	13606.778775384598	35.341707708185
0	4305	13609.752852342257	2.974076957659
0	4308	13619.706038396199	9.953186053942
0	4311	13632.910720997189	13.20468260099
0	4313	13656.066792989706	23.156071992517
0	4317	13664.481916089031	8.415123099325
0	4321	13666.687872349134	2.205956260103
0	4324	13692.166746870511	25.478874521377
0	4326	13694.011221150055	1.844474279544
0	4328	13715.588275533825	21.57705438377
0	4330	13715.782338495323	0.194062961498
0	4332	13717.134256342405	1.351917847082
0	4334	13719.559474691708	2.425218349303
0	4336	13719.9691836128	0.409708921092
0	4338	13720.38873951543	0.41955590263
0	4343	13738.33542087586	17.94668136043
0	4348	13757.981152839851	19.645731963991
0	4353	13767.786186712783	9.805033872932
0	4355	13768.411330532498	0.625143819715
0	4360	13800.446605435088	32.03527490259
0	4363	13804.375098059469	3.928492624381
0	4366	13813.8985041669	9.523406107431
0	4369	13821.883461699054	7.984957532154
0	4371	13826.355764427945	4.472302728891
0	4373	13840.541011910658	14.185247482713
0	4375	13849.521306449333	8.980294538675
0	4378	13861.229315685842	11.708009236509
0	4380	13861.973231049026	0.743915363184
0	4387	13890.55914023036	28.585909181334
0	4389	13892.247311554132	1.688171323772
0	4393	13918.928489963176	26.681178409044
0	4396	13966.835608847136	47.90711888396
0	4398	13970.658038128204	3.822429281068
0	4400	13972.973153832715	2.315115704511
0	4402	13973.494423573669	0.521269740954
0	4407	13989.729982904559	16.23555933089
0	4409	14001.085060387599	11.35507748304
0	4412	14006.301251766194	5.216191378595
0	4414	14019.309840333324	13.00858856713
0	4416	14024.426179885434	5.11633955211
0	4423	14070.612318348965	46.186138463531
0	4425	14072.800315192563	2.187996843598
0	4427	14074.129653875626	1.329338683063
0	4430	14100.657129721903	26.527475846277
0	4432	14116.771890540154	16.114760818251
0	4436	14164.711458286743	47.939567746589
0	4440	14185.848614329532	21.137156042789
0	4442	14189.10584467448	3.257230344948
0	4446	14196.854609144008	7.748764469528
0	4448	14197.599927032286	0.745317888278
0	4450	14199.655407875379	2.055480843093
0	4452	14203.045694076436	3.390286201057
0	4454	14212.612388164608	9.566694088172
0	4456	14217.34604201503	4.733653850422
0	4460	14228.931482094094	11.585440079064
0	4463	14244.341344635369	15.409862541275
0	4465	14250.550010581739	6.20866594637
0	4468	14257.738528223045	7.188517641306
0	4473	14281.571150535345	23.8326223123
0	4475	14284.362518583533	2.791368048188
0	4478	14285.810079135142	1.447560551609
0	4481	14295.6112030515	9.801123916358
0	4486	14308.667995364589	13.056792313089
0	4488	14322.184191014727	13.516195650138
0	4494	14339.767519045539	17.583328030812
0	4497	14364.914049956105	25.146530910566
0	4500	14377.614261299828	12.700211343723
0	4503	14403.200393318918	25.58613201909
0	4506	14408.484300080858	5.28390676194
0	4510	14424.003812962184	15.519512881326
0	4513	14458.313784401354	34.30997143917
0	4515	14475.021507938747	16.707723537393
0	4517	14482.243955381532	7.222447442785
0	4520	14491.322404841713	9.078449460181
0	4524	14517.112231710476	25.789826868763
0	4526	14521.287128696664	4.174896986188
0	4528	14522.645873194845	1.358744498181
0	4533	14557.152486776151	34.506613581306
0	4535	14572.018127230704	14.865640454553
0	4537	14579.73103198091	7.712904750206
0	4540	14590.190788600961	10.459756620051
0	4544	14597.66001400191	7.469225400949
0	4546	14602.279786469766	4.619772467856
0	4549	14634.342101290207	32.062314820441
0	4551	14638.178385865927	3.83628457572
0	4556	14658.786800137504	20.608414271577
0	4558	14661.020981513581	2.234181376077
0	4562	14671.101167351775	10.080185838194
0	4565	14703.087012828679	31.985845476904
0	4567	14705.746724932233	2.659712103554
0	4569	14710.013466000688	4.266741068455
0	4572	14715.373381562466	5.359915561778
0	4575	14722.307857497545	6.934475935079
0	4577	14723.699154810318	1.391297312773
0	4582	14745.433396600987	21.734241790669
0	4585	14748.027300512164	2.593903911177
0	4587	14752.663100691726	4.635800179562
0	4589	14755.339291499593	2.676190807867
0	4593	14764.129411666035	8.790120166442
0	4595	14772.529238876922	8.399827210887
0	4598	14774.028469853342	1.49923097642
0	4600	14776.087867812251	2.059397958909
0	4603	14790.431728108566	14.343860296315
0	4607	14797.845705330006	7.41397722144
0	4612	14816.260334707503	18.414629377497
0	4615	14832.678171035814	16.417836328311
0	4621	14877.950597526621	45.272426490807
0	4623	14882.052057525575	4.101459998954
0	4626	14930.169236522999	48.117178997424
0	4630	14949.074447761057	18.905211238058
0	4632	14956.317688734572	7.243240973515
0	4634	14965.440548144456	9.122859409884
0	4637	14969.240376737505	3.799828593049
0	4640	14981.057483100668	11.817106363163
0	4642	14982.221929790349	1.164446689681
0	4646	14990.897893563272	8.675963772923
0	4648	14992.983138324671	2.085244761399
0	4651	15006.872206576595	13.889068251924
0	4653	15006.968631167412	0.096424590817
0	4655	15014.239507628318	7.270876460906
0	4658	15015.682724752182	1.443217123864
0	4661	15025.322067292514	9.639342540332
0	4663	15028.982944217247	3.660876924733
0	4666	15045.060489650681	16.077545433434
0	4670	15057.071995879162	12.011506228481
0	4672	15064.405237765124	7.333241885962
0	4676	15075.573476108962	11.168238343838
0	4680	15096.063557279902	20.49008117094
0	4686	15112.186405794437	16.122848514535
0	4688	15116.816034806707	4.62962901227
0	4690	15125.754189387754	8.938154581047
0	4692	15127.757157722206	2.002968334452
0	4695	15133.035140222996	5.27798250079
0	4699	15139.598125572209	6.562985349213
0	4703	15148.211601787442	8.613476215233
0	4706	15168.763850947684	20.552249160242
0	4710	15179.888579121903	11.124728174219
0	4712	15180.089808874758	0.201229752855
0	4714	15182.317371979062	2.227563104304
0	4718	15198.75533449858	16.437962519518
0	4720	15200.227350263323	1.472015764743
0	4724	15209.557379003925	9.330028740602
0	4728	15226.774588380383	17.217209376458
0	4731	15241.558792345732	14.784203965349
0	4733	15243.65188459477	2.093092249038
0	4735	15251.75512410363	8.10323950886
0	4739	15268.565158053746	16.810033950116
0	4742	15272.2928490828	3.727691029054
0	4744	15284.308320344926	12.015471262126
0	4749	15294.675458600265	10.367138255339
0	4752	15300.414830001912	5.739371401647
0	4754	15302.149304390366	1.734474388454
0	4756	15302.838612938304	0.689308547938
0	4762	15327.548696882177	24.710083943873
0	4765	15334.17368225408	6.624985371903
0	4768	15337.911833940387	3.738151686307
0	4770	15344.017249924016	6.105415983629
0	4773	15348.929827447717	4.912577523701
0	4775	15350.036164842359	1.106337394642
0	4779	15412.913930741413	62.877765899054
0	4781	15413.026001464109	0.112070722696
0	4783	15422.902146501826	9.876145037717
0	4787	15432.466538156369	9.564391654543
0	4789	15436.551956704656	4.085418548287
0	4792	15442.054538644221	5.502581939565
0	4796	15491.619509340692	49.564970696471
0	4799	15497.475997906279	5.856488565587
0	4801	15499.134547226043	1.658549319764
0	4803	15502.487917059071	3.353369833028
0	4806	15506.411826460517	3.923909401446
0	4808	15507.468844568976	1.057018108459
0	4815	15551.636229232813	44.167384663837
0	4817	15553.053331483819	1.417102251006
0	4820	15566.119435061563	13.066103577744
0	4824	15587.401565217469	21.282130155906
0	4826	15601.452832696444	14.051267478975
0	4829	15615.510948170293	14.058115473849
0	4832	15620.63515110467	5.124202934377
0	4835	15625.498981130675	4.863830026005
0	4839	15652.123138071485	26.62415694081
0	4841	15655.242310365607	3.119172294122
0	4843	15661.094784329669	5.852473964062
0	4845	15663.425013666278	2.330229336609
0	4848	15669.322816457555	5.897802791277
0	4850	15671.378662092045	2.05584563449
0	4852	15681.709452705897	10.330790613852
0	4854	15683.626445468079	1.916992762182
0	4858	15703.899229204288	20.272783736209
0	4860	15704.606750750146	0.707521545858
0	4862	15705.260048252263	0.653297502117
0	4864	15705.687098906579	0.427050654316
0	4873	15735.763036432291	30.075937525712
0	4876	15742.884181011882	7.121144579591
0	4878	15743.8219193912	0.937738379318
0	4882	15751.546728616098	7.724809224898
0	4884	15752.26206427675	0.715335660652
0	4886	15753.902388475057	1.640324198307
0	4889	15762.159876778498	8.257488303441
0	4891	15764.030971459892	1.871094681394
0	4896	15779.427822062883	15.396850602991
0	4902	15801.545089966988	22.117267904105
0	4904	15803.018142029105	1.473052062117
0	4907	15824.688067494701	21.669925465596
0	4910	15836.461731533143	11.773664038442
0	4912	15838.886442081102	2.424710547959
0	4915	15850.376910987407	11.490468906305
0	4918	15856.957198620307	6.5802876329
0	4922	15864.351052718259	7.393854097952
0	4925	15880.959509156235	16.608456437976
0	4928	15883.312804705106	2.353295548871
0	4931	15902.24004745816	18.927242753054
0	4933	15910.370280732697	8.130233274537
0	4936	15922.94789911731	12.577618384613
0	4939	15927.114644083968	4.166744966658
0	4941	15927.754136862512	0.639492778544
0	4944	15928.332404179414	0.578267316902
0	4950	15947.941054672236	19.608650492822
0	4954	16017.792598134876	69.85154346264
0	4957	16035.606419055527	17.813820920651
0	4960	16055.251540565525	19.645121509998
0	4963	16061.178565321642	5.927024756117
0	4965	16065.788668509145	4.610103187503
0	4967	16071.100710135163	5.312041626018
0	4969	16078.439598909956	7.338888774793
0	4971	16080.468876364161	2.029277454205
0	4973	16080.987158557425	0.518282193264
0	4978	16086.086057460157	5.098898902732
0	4982	16093.604183483287	7.51812602313
0	4987	16110.39095013658	16.786766653293
0	4989	16114.544875035624	4.153924899044
0	4992	16125.555013279633	11.010138244009
0	4995	16131.902350075953	6.34733679632
0	4997	16132.713859891445	0.811509815492
0	4999	16133.86887557454	1.155015683095
0	5002	16138.443684788878	4.574809214338
0	5006	16146.862030581201	8.418345792323
0	5008	16156.142294258987	9.280263677786
0	5010	16156.581157642062	0.438863383075
0	5014	16173.57568878515	16.994531143088
0	5018	16185.786906346925	12.211217561775
0	5021	16203.448492956571	17.661586609646
0	5024	16236.885957156115	33.437464199544
0	5028	16256.93073390086	20.044776744745
0	5032	16281.526775412271	24.596041511411
0	5034	16284.001715205216	2.474939792945
0	5036	16285.50604014201	1.504324936794
0	5039	16294.274926659792	8.768886517782
0	5042	16312.155718084557	17.880791424765
0	5044	16323.446563221153	11.290845136596
0	5046	16325.781454537306	2.334891316153
0	5049	16337.064815278942	11.283360741636
0	5052	16340.947582282331	3.882767003389
0	5057	16350.351224028238	9.403641745907
0	5060	16367.359928199304	17.008704171066
0	5062	16373.683928881127	6.324000681823
0	5064	16379.453760759344	5.769831878217
0	5066	16382.149136147861	2.695375388517
0	5069	16393.299465478854	11.150329330993
0	5071	16403.721057066159	10.421591587305
0	5075	16422.086294272894	18.365237206735
0	5077	16434.07920199563	11.992907722736
0	5079	16438.8501288362	4.77092684057
0	5082	16447.834881494173	8.984752657973
0	5084	16452.756073132298	4.921191638125
0	5090	16457.733669067011	4.977595934713
0	5096	16477.906265535906	20.172596468895
0	5100	16486.104969512645	8.198703976739
0	5102	16508.794837763453	22.689868250808
0	5104	16510.29300668827	1.498168924817
0	5110	16522.248917745505	11.955911057235
0	5112	16522.8717072156	0.622789470095
0	5114	16525.195815844316	2.324108628716
0	5118	16552.606304803041	27.410488958725
0	5120	16559.617645840836	7.011341037795
0	5124	16576.461844618367	16.844198777531
0	5126	16596.224477077491	19.762632459124
0	5128	16599.046252904103	2.821775826612
0	5132	16619.310417397173	20.26416449307
0	5134	16639.246905006484	19.936487609311
0	5138	16644.751350779308	5.504445772824
0	5140	16647.626891889499	2.875541110191
0	5142	16649.158924831529	1.53203294203
0	5144	16657.061672248001	7.902747416472
0	5146	16661.133427995539	4.071755747538
0	5148	16661.813004672319	0.67957667678
0	5156	16687.623484472495	25.810479800176
0	5159	16701.036575224956	13.413090752461
0	5162	16716.147495102147	15.110919877191
0	5164	16728.934767816981	12.787272714834
0	5167	16745.006867780275	16.072099963294
0	5172	16782.424960249635	37.41809246936
0	5174	16785.416761445916	2.991801196281
0	5176	16795.316935792482	9.900174346566
0	5180	16815.526013634326	20.209077841844
0	5183	16825.742453936029	10.216440301703
0	5186	16831.307455903742	5.565001967713
0	5188	16838.782922832054	7.475466928312
0	5191	16846.443399946377	7.660477114323
0	5193	16850.431875105697	3.98847515932
0	5197	16858.178171209809	7.746296104112
0	5201	16876.661163432223	18.482992222414
0	5203	16885.763750281894	9.102586849671
0	5206	16896.618903855662	10.855153573768
0	5208	16899.667125356338	3.048221500676
0	5210	16901.833411301193	2.166285944855
0	5215	16921.149171675419	19.315760374226
0	5219	16935.794680823305	14.645509147886
0	5223	16947.621312141628	11.826631318323
0	5225	16949.181382431007	1.560070289379
0	5227	16950.281302429678	1.099919998671
0	5231	16968.558067238677	18.276764808999
0	5235	16977.657109867739	9.099042629062
0	5238	16990.872218626966	13.215108759227
0	5240	16993.521198633885	2.648980006919
0	5243	17003.479516496346	9.958317862461
0	5245	17011.924490022665	8.444973526319
0	5248	17015.597622565472	3.673132542807
0	5250	17016.116133341919	0.518510776447
0	5253	17021.727585919809	5.61145257789
0	5257	17031.417140812215	9.689554892406
0	5262	17045.416848607805	13.99970779559
0	5264	17052.912538339456	7.495689731651
0	5267	17058.22592653707	5.313388197614
0	5269	17062.968043173691	4.742116636621
0	5271	17064.299507072448	1.331463898757
0	5273	17065.495173523262	1.195666450814
0	5276	17071.984710126383	6.489536603121
0	5278	17085.036417634498	13.051707508115
0	5283	17102.356473342244	17.320055707746
0	5285	17103.076685453365	0.720212111121
0	5288	17104.425864475386	1.349179022021
0	5291	17111.364377830635	6.938513355249
0	5293	17113.200140387953	1.835762557318
0	5295	17114.252636621763	1.05249623381
0	5302	17143.729715987608	29.477079365845
0	5304	17146.359394118306	2.629678130698
0	5306	17159.596825551528	13.237431433222
0	5310	17164.812283544394	5.215457992866
0	5315	17207.553670988856	42.741387444462
0	5317	17211.53859969324	3.984928704384
0	5319	17216.725685517325	5.187085824085
0	5322	17229.061690127973	12.336004610648
0	5324	17229.511639386308	0.449949258335
0	5327	17233.590670106026	4.079030719718
0	5330	17249.287254097032	15.696583991006
0	5332	17251.062312149341	1.775058052309
0	5335	17255.939678426344	4.877366277003
0	5342	17284.999009143297	29.059330716953
0	5345	17291.145719493824	6.146710350527
0	5349	17299.644064131745	8.498344637921
0	5351	17307.173301794561	7.529237662816
0	5353	17315.635896097817	8.462594303256
0	5356	17320.323436476375	4.687540378558
0	5361	17339.900361043906	19.576924567531
0	5363	17355.545232459408	15.644871415502
0	5367	17382.312313098075	26.767080638667
0	5370	17398.487470721841	16.175157623766
0	5372	17400.188726521568	1.701255799727
0	5374	17406.765296864995	6.576570343427
0	5378	17440.170374119037	33.405077254042
0	5381	17447.579437667411	7.409063548374
0	5383	17453.643188437913	6.063750770502
0	5386	17464.524592547503	10.88140410959
0	5391	17492.455382948105	27.930790400602
0	5393	17510.951881739811	18.496498791706
0	5397	17535.633237199261	24.68135545945
0	5399	17543.874477472826	8.241240273565
0	5401	17545.84745192919	1.972974456364
0	5403	17546.819031581233	0.971579652043
0	5405	17547.819620162931	1.000588581698
0	5407	17548.833403263257	1.013783100326
0	5409	17557.938886918953	9.105483655696
0	5413	17569.312483176918	11.373596257965
0	5416	17575.022970267954	5.710487091036
0	5421	17593.3931644585	18.370194190546
0	5423	17595.432943161322	2.039778702822
0	5426	17602.143188323752	6.71024516243
0	5432	17625.064618316611	22.921429992859
0	5434	17628.79431588287	3.729697566259
0	5437	17644.508617630235	15.714301747365
0	5440	17650.015329757492	5.506712127257
0	5444	17677.502134607865	27.486804850373
0	5448	17695.554406032395	18.05227142453
0	5450	17698.950324643874	3.395918611479
0	5452	17701.452787270336	2.502462626462
0	5454	17703.802403571037	2.349616300701
0	5458	17710.611471874312	6.809068303275
0	5460	17713.734685630111	3.123213755799
0	5463	17728.120917487615	14.386231857504
0	5467	17735.571072707179	7.450155219564
0	5469	17744.174429338882	8.603356631703
0	5475	17761.904829032284	17.730399693402
0	5479	17771.745319331067	9.840490298783
0	5481	17773.005940135157	1.26062080409
0	5483	17782.524708245979	9.518768110822
0	5487	17788.07740841805	5.552700172071
0	5491	17801.838492938744	13.761084520694
0	5493	17805.885795413157	4.047302474413
0	5495	17818.731495347741	12.845699934584
0	5499	17831.848044622735	13.116549274994
0	5501	17836.439519987745	4.59147536501
0	5503	17837.311115411119	0.871595423374
0	5507	17853.072545250217	15.761429839098
0	5509	17856.144295707271	3.071750457054
0	5512	17866.401251614381	10.25695590711
0	5515	17881.042025602234	14.640773987853
0	5517	17883.955679763328	2.913654161094
0	5523	17910.681627874086	26.725948110758
0	5525	17911.034329270633	0.352701396547
0	5528	17926.16145159635	15.127122325717
0	5530	17928.516894598279	2.355443001929
0	5534	17975.40498492894	46.888090330661
0	5537	17984.319311323248	8.914326394308
0	5539	17992.120062956165	7.800751632917
0	5542	17995.174820037581	3.054757081416
0	5544	18005.01907136334	9.844251325759
0	5549	18017.700223812876	12.681152449536
0	5551	18023.239548698549	5.539324885673
0	5553	18023.346258825559	0.10671012701
0	5555	18025.124613220573	1.778354395014
0	5558	18042.117181825203	16.99256860463
0	5560	18045.069606713714	2.952424888511
0	5563	18047.143281005721	2.073674292007
0	5565	18050.858740426601	3.71545942088
0	5567	18053.674115846101	2.8153754195
0	5575	18080.925493861498	27.251378015397
0	5578	18099.212025741791	18.286531880293
0	5581	18108.615304759977	9.403279018186
0	5583	18110.902747317623	2.287442557646
0	5585	18113.718030265268	2.815282947645
0	5589	18129.544422343686	15.826392078418
0	5591	18132.254681973712	2.710259630026
0	5593	18134.75444184076	2.499759867048
0	5597	18165.520785338556	30.766343497796
0	5600	18167.075831571498	1.555046232942
0	5605	18177.421862699817	10.346031128319
0	5607	18177.806556806837	0.38469410702
0	5610	18195.126302270158	17.319745463321
0	5613	18200.431016908289	5.304714638131
0	5615	18201.78884316019	1.357826251901
0	5618	18205.193925364577	3.405082204387
0	5622	18220.092348732034	14.898423367457
0	5625	18225.837504735568	5.745156003534
0	5629	18261.983582700792	36.146077965224
0	5631	18264.74137424675	2.757791545958
0	5635	18280.983076985719	16.241702738969
0	5638	18291.543233644931	10.560156659212
0	5641	18302.663314615587	11.120080970656
0	5643	18305.73262497249	3.069310356903
0	5645	18306.921175242012	1.188550269522
0	5648	18319.883743131974	12.962567889962
0	5651	18328.159724328806	8.275981196832
0	5659	18366.204217921842	38.044493593036
0	5661	18366.339775070327	0.135557148485
0	5663	18366.502277063234	0.162501992907
0	5665	18368.490719494079	1.988442430845
0	5667	18371.837123150893	3.346403656814
0	5672	18405.688956330819	33.851833179926
0	5675	18412.389269378601	6.700313047782
0	5677	18420.17038843955	7.781119060949
0	5680	18437.708799033105	17.538410593555
0	5684	18447.413465788247	9.704666755142
0	5688	18468.130744214742	20.717278426495
0	5691	18483.577712038586	15.446967823844
0	5693	18496.445068845759	12.867356807173
0	5696	18507.703929417445	11.258860571686
0	5699	18512.30761311601	4.603683698565
0	5703	18527.801196680167	15.493583564157
0	5705	18531.975854832485	4.174658152318
0	5707	18533.763556115428	1.787701282943
0	5710	18546.873779471781	13.110223356353
0	5712	18548.815998011412	1.942218539631
0	5715	18560.215656584201	11.399658572789
0	5720	18562.876350608044	2.660694023843
0	5723	18571.014984760516	8.138634152472
0	5726	18588.046352545252	17.031367784736
0	5729	18600.475000946121	12.428648400869
0	5731	18602.219948861008	1.744947914887
0	5733	18604.461274547549	2.241325686541
0	5735	18616.879295253933	12.418020706384
0	5740	18621.769377313303	4.89008205937
0	5745	18639.625794486859	17.856417173556
0	5747	18648.77108171139	9.145287224531
0	5750	18666.222640690092	17.451558978702
0	5753	18669.142475884456	2.919835194364
0	5755	18671.267558411686	2.12508252723
0	5757	18671.585386603596	0.31782819191
0	5760	18674.515339771762	2.929953168166
0	5762	18685.253148329961	10.737808558199
0	5764	18686.170091932067	0.916943602106
0	5767	18693.443631328935	7.273539396868
0	5773	18706.298609377458	12.854978048523
0	5775	18707.212685522111	0.914076144653
0	5777	18707.802659777458	0.589974255347
0	5781	18719.322311876685	11.519652099227
0	5783	18721.557340413584	2.235028536899
0	5785	18732.859973067344	11.30263265376
0	5787	18743.643731998511	10.783758931167
0	5793	18756.247062137338	12.603330138827
0	5796	18766.032885794082	9.785823656744
0	5801	18792.638862968675	26.605977174593
0	5804	18806.118729241303	13.479866272628
0	5807	18822.163109568383	16.04438032708
0	5809	18823.399387314793	1.23627774641
0	5815	18848.05171022189	24.652322907097
0	5817	18848.404896220182	0.353185998292
0	5819	18851.950294112233	3.545397892051
0	5822	18854.86839180362	2.918097691387
0	5825	18862.929241274283	8.060849470663
0	5827	18876.069953431893	13.14071215761
0	5830	18900.426744247937	24.356790816044
0	5832	18909.231711875207	8.80496762727
0	5835	18911.807375032779	2.575663157572
0	5840	18934.09913504298	22.291760010201
0	5842	18936.41592023228	2.3167851893
0	5844	18938.735668417997	2.319748185717
0	5846	18943.95741819793	5.221749779933
0	5849	18952.974192546753	9.016774348823
0	5853	18965.009056333024	12.034863786271
0	5855	18965.360429027231	0.351372694207
0	5857	18969.532335058112	4.171906030881
0	5859	18972.746902146547	3.214567088435
0	5862	18979.60719913073	6.860296984183
0	5871	19037.160273708374	57.553074577644
[...]
4	10933	35964.225608772232	5
4	10936	35967.879768210823	2
4	10937	35976.721483915657	0
4	10942	35978.336909049478	5
4	10943	35978.969742379255	1
4	10946	35996.350989901166	0
4	10947	35996.76187423359	2
4	10948	36003.430133429294	3
4	10953	36014.465403943949	4
4	10954	36025.236270560024	2
4	10955	36044.344753065831	0
4	10960	36057.485350076764	2
4	10961	36063.817323388051	1
4	10966	36079.083550391079	0
4	10969	36091.474036660214	0
4	10972	36107.492100699504	2
4	10973	36109.919952088649	0
4	10978	36119.032147964806	2
4	10981	36151.278010279018	2
4	10986	36169.341314731815	3
4	10991	36181.904938699975	2
4	10992	36183.749565716194	0
4	10993	36191.712378087325	1
4	10996	36214.655297496494	0
4	10997	36219.707451213202	3
4	10998	36221.08681823819	4
4	11003	36254.635701837371	0
4	11014	36274.113055565823	5
4	11015	36283.38016298873	1
4	11020	36287.135391297835	0
4	11021	36289.040558498284	3
4	11022	36292.427838806202	1
4	11027	36314.220986784211	1
4	11028	36314.897390402387	4
4	11029	36328.949904598648	0
4	11034	36349.914488865853	0
4	11035	36351.948651493537	2
4	11038	36365.456524547192	0
4	11041	36372.161926556953	5
4	11042	36380.64114886818	1
4	11047	36430.960768776404	0
4	11048	36447.498159643123	2
4	11053	36476.67709643627	0
4	11054	36480.633961445923	1
4	11059	36509.760275129988	0
4	11060	36511.331255891545	1
4	11065	36514.675245820368	1
4	11068	36522.898659182971	0
4	11071	36528.886459285787	1
4	11074	36537.43821201945	1
4	11077	36541.930100727401	1
4	11082	36547.180504969661	1
4	11085	36552.567370289623	0
4	11086	36569.32896188309	1
4	11087	36571.646767036519	2
4	11092	36584.324952181252	1
4	11095	36588.217125641413	1
4	11098	36593.864027619477	3
4	11101	36602.321968019601	1
4	11102	36616.587174955357	2
4	11105	36630.217399958263	0
4	11106	36630.442112192211	1
4	11113	36689.99181265179	2
4	11116	36699.945023445984	2
4	11119	36714.501513049851	2
4	11120	36715.789307307934	1
4	11123	36727.279282103708	0
4	11124	36727.383169917109	1
4	11129	36740.953038887126	0
4	11134	36757.754613621754	1
4	11137	36768.972998687293	2
4	11140	36797.098343907967	1
4	11141	36797.698334381325	2
4	11144	36814.011140022733	0
4	11153	36840.882443749934	3
4	11156	36850.27926390991	2
4	11157	36853.5803851749	0
4	11158	36853.871014961598	1
4	11161	36882.818285388389	3
4	11162	36888.656381554325	0
4	11165	36891.931609049361	0
4	11172	36911.917586023906	1
4	11175	36915.858834077503	4
4	11178	36917.555087499393	0
4	11181	36926.202896707953	2
4	11184	36933.814240988789	2
4	11187	36940.716364360336	2
4	11190	36959.300201473755	3
4	11191	36962.233128761143	1
4	11192	36970.03715824266	2
4	11203	37009.150078972152	1
4	11204	37009.638320738392	0
4	11205	37012.168852646002	3
4	11206	37016.687060377051	2
4	11211	37034.027672471614	4
4	11212	37034.116677733223	5
4	11219	37050.761810707732	4
4	11226	37060.702860802977	1
4	11227	37065.675955177072	2
4	11228	37077.227011017623	6
4	11229	37081.943960098312	3
4	11230	37086.360167817307	4
4	11233	37090.457807680956	1
4	11240	37107.459968461634	0
4	11241	37108.667809059534	2
4	11242	37119.36448175943	1
4	11245	37131.352839296911	5
4	11248	37147.546170959986	0
4	11251	37160.216139176291	1
4	11254	37165.746303970319	0
4	11255	37172.327945132233	3
4	11260	37184.107704475642	1
4	11265	37188.227761602078	3
4	11270	37193.661488822726	4
4	11271	37195.165725603267	3
4	11274	37196.753435367394	0
4	11275	37213.559845105036	3
4	11278	37227.149177666919	0
4	11279	37229.460336133918	1
4	11284	37239.85071704515	2
4	11287	37243.643313239407	0
4	11290	37261.758985766986	1
4	11293	37273.117305690494	2
4	11296	37289.734782184212	1
4	11299	37302.372948953122	0
4	11300	37308.565901750082	1
4	11305	37325.653554427263	0
4	11306	37345.384112247665	2
4	11315	37365.160558637792	3
4	11316	37369.581779354871	4
4	11317	37389.049243488955	1
4	11318	37394.072258463202	2
4	11321	37407.369959353519	1
4	11324	37429.932490207996	0
4	11335	37447.699448934542	4
4	11336	37455.827811043937	2
4	11337	37456.308835451399	3
4	11340	37460.275718107741	5
4	11343	37479.336973313119	2
4	11344	37480.546115657754	0
4	11347	37484.600556382589	0
4	11350	37489.76268749781	3
4	11351	37490.540426165738	0
4	11358	37508.211825022473	1
4	11361	37511.898922643991	3
4	11364	37526.656924413977	1
4	11369	37531.458837846708	4
4	11372	37541.017466142661	0
4	11377	37559.799385330713	3
4	11380	37561.329183388336	4
4	11381	37561.668887718277	1
4	11382	37569.176800706029	0
4	11391	37620.822391045468	0
4	11394	37627.460279483088	2
4	11395	37628.832587146845	1
4	11396	37640.764089846135	5
4	11401	37650.137083793988	0
4	11402	37659.14743486416	2
4	11403	37663.246737043338	3
4	11408	37671.858220940073	4
4	11409	37677.556218061606	6
4	11410	37679.554451274815	0
4	11413	37712.791826637188	2
4	11416	37720.537857447051	0
4	11417	37727.315010051365	2
4	11422	37737.154665964345	0
4	11425	37755.227724723993	1
4	11430	37774.752585931067	1
4	11435	37788.340171807917	1
4	11440	37793.921572670121	1
4	11441	37794.155120303335	4
4	11442	37796.732555355305	3
4	11443	37806.857086638238	5
4	11446	37816.610426714801	0
4	11451	37837.454508291022	3
4	11454	37848.703777169125	3
4	11455	37854.222115111613	0
4	11462	37870.973026818734	2
4	11463	37872.622545940297	3
4	11464	37876.290727756133	4
4	11471	37893.054978907495	1
4	11472	37893.995903073697	4
4	11477	37903.478762664531	3
4	11478	37904.595956115998	0
4	11481	37911.629099340402	2
4	11488	37936.014695294699	3
4	11493	37949.829415652394	4
4	11494	37950.561395041498	6
4	11497	37955.07332082902	5
4	11498	37957.719143919011	0
4	11499	37962.267557939337	1
4	11500	37968.639908559299	2
4	11501	37972.863502938599	3
4	11502	37974.552216303279	4
4	11511	38000.924301587629	3
4	11512	38007.214496277714	0
4	11513	38008.992249602089	2
4	11518	38018.906255699324	2
4	11521	38035.496120582576	2
4	11524	38066.934653893118	0
4	11529	38074.554301635344	1
4	11532	38085.682418990301	0
4	11535	38088.312116858091	3
4	11536	38089.354376023729	1
4	11537	38095.806778781052	0
4	11542	38107.869212596196	0
4	11545	38118.739034105203	1
4	11546	38123.031782581118	0
4	11549	38151.439075718335	2
4	11550	38154.342432923944	0
4	11555	38192.865654736724	1
4	11558	38223.86976456708	1
4	11565	38233.893197399363	1
4	11566	38235.146146252491	2
4	11567	38242.767231012372	3
4	11574	38268.103188203028	0
4	11575	38271.416297175689	1
4	11578	38284.084749777818	2
4	11581	38293.164207874169	0
4	11588	38310.117599571965	2
4	11589	38315.050909135677	3
4	11590	38317.405401460925	0
4	11595	38343.121331610889	2
4	11596	38343.298279605242	0
4	11605	38364.88619676083	2
4	11606	38365.060733378066	0
4	11609	38381.421741613515	3
4	11612	38391.106399398514	4
4	11621	38396.975173210523	7
4	11622	38397.630353014607	3
4	11623	38405.672101491443	5
4	11624	38406.731942164189	4
4	11625	38410.58154044258	6
4	11628	38416.384559987679	2
4	11631	38418.567860585138	0
4	11636	38431.603428204182	0
4	11637	38435.253643354157	2
4	11640	38440.469501686177	4
4	11643	38450.941622311167	3
4	11646	38464.848141320912	0
4	11647	38468.350255352196	3
4	11650	38490.079836643793	1
4	11651	38509.29756625927	2
4	11656	38532.158981987969	0
4	11657	38535.879773972895	2
4	11662	38540.066641703694	2
4	11665	38556.133209291597	1
4	11668	38574.201187805203	0
4	11673	38588.489643693595	3
4	11676	38593.495120568471	1
4	11677	38603.77387627725	2
4	11678	38605.851336897189	3
4	11681	38625.050412718123	1
4	11690	38646.614112133368	0
4	11691	38655.272315228237	1
4	11692	38658.552588440255	2
4	11693	38664.211260581724	3
4	11700	38696.441677924799	0
4	11703	38723.93126700814	0
4	11706	38738.164057419971	1
4	11707	38739.576782377787	2
4	11708	38748.416286219493	0
4	11709	38751.725958452351	4
4	11714	38778.302567765437	1
4	11719	38795.443263735941	1
4	11722	38800.781708947979	1
4	11727	38819.929690715898	2
4	11730	38821.584991088232	3
4	11731	38836.073473009174	0
4	11732	38844.448859515001	2
4	11735	38853.071331578256	1
4	11738	38859.032871232778	0
4	11743	38874.182450377446	1
4	11746	38875.303193229117	0
4	11747	38894.127183436772	1
4	11748	38899.427569889923	2
4	11753	38929.564702263214	0
4	11758	38940.046006684419	2
4	11761	38959.226272884407	0
4	11762	38969.395654345641	1
4	11765	38985.449305127891	2
4	11766	39000.841600366785	0
4	11771	39040.885014920947	1
4	11776	39054.759300876301	2
4	11779	39066.947247125503	2
4	11780	39077.624583360581	0
4	11785	39106.252425639919	2
4	11786	39118.009825369321	1
4	11791	39141.795456954256	2
4	11796	39158.532061803946	3
4	11797	39164.221131470352	0
4	11800	39178.175838445708	2
4	11801	39184.069280958651	1
4	11802	39189.215603998791	0
4	11811	39223.582804994186	3
4	11812	39229.959187598193	1
4	11815	39236.909780322137	1
4	11820	39250.873216616395	0
4	11823	39257.114000328903	0
4	11824	39257.568760877327	1
4	11827	39267.541395058403	0
4	11830	39275.83083194014	2
4	11835	39305.288137942398	3
4	11836	39305.368484661533	2
4	11843	39320.369511870576	1
4	11844	39320.724037458466	4
4	11845	39321.319197765551	3
4	11846	39325.337999491335	2
4	11847	39330.542950438233	0
4	11852	39375.309523531928	1
4	11857	39396.842208200192	0
4	11860	39397.090502445645	1
4	11861	39405.355450824645	0
4	11862	39421.721269270903	2
4	11865	39452.185967361387	0
4	11872	39484.799291978114	0
4	11873	39488.611630225727	2
4	11878	39513.371727690763	0
4	11879	39519.265334950029	1
4	11882	39548.237378550649	0
4	11883	39559.172583545506	2
4	11890	39593.371153653447	2
4	11899	39630.764968301558	3
4	11900	39630.97771440695	0
4	11907	39634.607568278054	0
4	11908	39639.928468772943	6
4	11911	39643.732184458745	4
4	11914	39655.452782393843	4
4	11917	39660.00165014363	2
4	11918	39660.733233926645	5
4	11923	39669.091006834587	3
4	11924	39672.723577811798	1
4	11925	39678.384405602486	5
4	11928	39681.428431800961	4
4	11929	39684.653625631321	2
4	11930	39686.220771800345	1
4	11933	39691.914384670906	1
4	11934	39704.685615912075	0
4	11941	39737.728584661957	0
4	11942	39738.807436880028	2
4	11947	39748.154606593775	0
4	11948	39750.47654483797	2
4	11949	39770.231256934936	1
4	11952	39780.252009041605	0
4	11959	39792.31967474734	2
4	11966	39810.171370785241	0
4	11967	39815.171204331543	3
4	11968	39816.335651864596	4
4	11971	39832.585299096753	0
4	11976	39843.814488246917	2
4	11981	39860.526613434394	0
4	11982	39861.852077579419	2
4	11987	39868.46230291885	2
4	11988	39875.441561280581	3
4	11989	39879.832125106194	1
4	11992	39889.381427747642	4
4	11993	39896.555673599188	1
4	11996	39902.743384557957	0
4	11999	39921.41254195237	0
4	12006	39934.929587945448	3
4	12007	39957.90250033013	1
4	12014	40008.226847434751	2
4	12015	40012.420279555653	3
4	12016	40020.089503052709	0
4	12019	40037.182016415861	0
4	12022	40053.211785298218	4
4	12025	40060.598001357416	1
4	12032	40084.517102329012	0
4	12033	40084.847894393547	4
4	12040	40100.600182706897	1
4	12041	40104.677594336856	2
4	12042	40105.819763525838	5
4	12043	40109.059107993672	4
4	12048	40121.048363465688	3
4	12049	40143.79976455825	1
4	12050	40147.715248780899	0
4	12057	40163.699683714819	0
4	12062	40175.224882283156	3
4	12063	40181.047471821718	0
4	12068	40196.017032308069	0
4	12071	40210.875160550423	2
4	12072	40217.613197471418	4
4	12073	40219.620451741652	0
4	12074	40220.3007791671	1
4	12075	40234.750092444982	3
4	12080	40295.76923383332	0
4	12087	40309.671986715891	0
4	12088	40310.828424702816	2
4	12093	40320.468274804942	0
4	12098	40350.253049419571	3
4	12101	40360.952208491775	4
4	12102	40374.411212494384	3
4	12109	40381.400285792354	3
4	12110	40381.473870692681	4
4	12111	40381.604687155396	2
4	12112	40392.290223402459	1
4	12119	40409.106612896307	3
4	12120	40413.047035603722	2
4	12121	40415.807082358602	5
4	12122	40416.720810110017	1
4	12125	40437.313198744816	1
4	12132	40457.603149709432	2
4	12135	40458.309892556262	1
4	12142	40479.047974284378	1
4	12145	40498.939949299631	1
4	12150	40504.304049408489	3
4	12151	40504.493803010093	2
4	12154	40508.450094461882	2
4	12157	40509.699445489632	4
4	12158	40511.60718309824	0
4	12161	40516.590128375011	6
4	12164	40520.44076560464	3
4	12167	40533.889090699533	1
4	12170	40545.565896963392	3
4	12171	40548.848230356423	1
4	12172	40557.148826550789	0
4	12181	40585.389918930449	1
4	12184	40595.449669541614	4
4	12185	40601.783886007827	1
4	12186	40602.520036491757	2
4	12187	40602.580730390099	0
4	12192	40635.449739801432	5
4	12193	40636.686444703403	1
4	12194	40638.578976985819	0
4	12197	40649.730906409863	3
4	12200	40655.976638057544	1
4	12205	40669.131666106607	2
4	12206	40669.855263100378	0
4	12209	40679.458934229752	0
4	12210	40679.602934125377	1
4	12217	40697.015518832557	2
4	12224	40728.793475710489	0
4	12225	40732.637267640756	1
4	12228	40738.968127320224	0
4	12229	40751.941531700355	3
4	12240	40769.678424390493	4
4	12243	40772.029134950571	5
4	12244	40777.310754957059	4
4	12245	40781.391520332808	6
4	12250	40793.483330645538	5
4	12251	40795.338803122569	1
4	12258	40806.583134729165	1
4	12259	40806.768535196748	6
4	12264	40820.631976457573	5
4	12265	40835.447078275504	3
4	12266	40842.611186635541	2
4	12267	40845.89210225581	1
4	12268	40857.942741260521	0
4	12271	40886.824958544334	6
4	12272	40892.086047094255	0
4	12277	40904.149024565712	1
4	12278	40905.253402573832	0
4	12283	40936.251994648528	1
4	12286	40946.991728506632	0
4	12287	40954.518689158101	1
4	12298	40968.617896370058	5
4	12299	40972.624089967338	1
4	12302	40983.539202055134	2
4	12303	40984.143943647126	4
4	12304	40988.206908927025	0
4	12309	40996.373221391137	1
4	12310	40997.030659178351	2
4	12311	41000.768730373861	0
4	12316	41002.383453398519	1
4	12317	41007.4281620882	0
4	12320	41010.961240389564	3
4	12327	41026.3130480824	1
4	12330	41030.377666499661	3
4	12333	41034.405533259195	2
4	12334	41042.825191866292	3
4	12335	41043.985149462656	1
4	12338	41078.220882972212	0
4	12341	41088.167057209397	1
4	12344	41115.287399273541	1
4	12347	41122.123031181556	1
4	12350	41163.121451748466	0
4	12355	41171.791067111269	1
4	12356	41173.200879645868	0
4	12357	41179.435443963485	2
4	12360	41181.920637786834	0
4	12365	41186.68882745847	0
4	12368	41194.192868600286	1
4	12373	41204.078088462689	2
4	12374	41204.479853793594	0
4	12383	41228.363418617882	1
4	12386	41239.443553956804	0
4	12387	41248.133069284581	2
4	12388	41250.4280394137	1
4	12393	41267.948836750881	4
4	12394	41270.654413930602	1
4	12401	41312.613838265502	2
4	12402	41314.216000523709	3
4	12403	41325.117147422095	4
4	12406	41334.298870382183	0
4	12413	41352.007445320365	1
4	12414	41352.011846624538	0
4	12415	41354.910977074901	2
4	12418	41356.175364464951	3
4	12421	41378.826392933602	4
4	12426	41388.121612435222	2
4	12429	41399.457628078398	3
4	12432	41421.912435046411	0
4	12435	41431.889997782321	0
4	12436	41434.092967924359	2
4	12437	41436.737929701086	3
4	12450	41455.151762512472	5
4	12451	41461.054857899327	6
4	12454	41464.856711968842	5
4	12457	41471.977196693395	5
4	12460	41479.100634483212	4
4	12463	41492.343027357771	3
4	12464	41498.923756740321	2
4	12467	41503.501194470861	2
4	12472	41523.065901227207	4
4	12473	41527.499775607274	1
4	12474	41550.637989444312	5
4	12475	41554.261492169935	3
4	12478	41574.563035836025	1
4	12483	41583.07474425594	2
4	12486	41590.274292528495	0
4	12487	41591.863623288736	1
4	12492	41602.29665144888	1
4	12493	41610.390519745627	2
4	12496	41616.158247764682	1
4	12497	41621.346267994816	3
4	12500	41641.371620432884	1
4	12503	41650.40787124747	0
4	12508	41663.917439210221	2
4	12513	41708.80650130213	3
4	12516	41727.970480589628	2
4	12517	41732.744248378387	3
4	12518	41738.133193411587	0
4	12523	41755.282027524935	2
4	12528	41770.04194216538	1
4	12529	41773.308609984391	2
4	12530	41774.360365580579	3
4	12537	41792.345445770784	2
4	12538	41797.182265430209	1
4	12539	41801.568625842224	0
4	12540	41805.33109615719	3
4	12547	41838.279672774566	2
4	12558	41874.936078369912	6
4	12561	41879.47990015638	6
4	12566	41884.208016383165	5
4	12567	41889.16487952424	0
4	12568	41889.916077141582	3
4	12571	41894.891867167553	0
4	12572	41894.982741196517	7
4	12573	41896.509435086098	2
4	12578	41924.039461506068	1
4	12585	41937.465644305077	2
4	12586	41943.386354902185	4
4	12587	41943.982652287077	1
4	12594	41952.883339683032	1
4	12595	41952.909929159635	3
4	12598	41953.714451626626	2
4	12601	41955.95288206339	2
4	12602	41957.805978526565	1
4	12605	41965.323347196203	4
4	12610	41967.498346240076	6
4	12613	41969.344764255234	2
4	12614	41974.400097548851	0
4	12615	41975.749967403798	4
4	12630	42008.955102973283	5
4	12631	42009.311785405434	7
4	12632	42013.569730800785	2
4	12633	42015.018175636172	3
4	12634	42016.567737002736	8
4	12639	42023.052461697152	3
4	12640	42025.911327386268	1
4	12643	42029.370806385645	6
4	12644	42031.655354277029	2
4	12645	42033.038447884846	4
4	12646	42039.294125044009	0
4	12653	42075.288707999444	1
4	12654	42077.673524311961	0
4	12657	42087.662179526588	3
4	12662	42124.711438792156	3
4	12663	42126.960136009775	0
4	12664	42127.347970523448	9
4	12665	42132.001378175154	2
4	12666	42133.547228625244	1
4	12675	42179.683956880353	2
4	12676	42192.249326558255	1
4	12677	42216.623628471561	3
4	12678	42230.790806472271	0
4	12681	42249.329996338127	0
4	12686	42291.446129863868	1
4	12693	42315.901285557587	2
4	12698	42330.146207077842	0
4	12699	42330.37191373966	2
4	12704	42362.476490431347	4
4	12711	42378.610271077862	6
4	12712	42386.737086925288	4
4	12717	42403.320914888785	1
4	12720	42407.830106152363	5
4	12721	42409.487794699751	3
4	12722	42411.037191099836	4
4	12725	42416.722773144729	2
4	12726	42422.799100867598	3
4	12731	42424.923314590178	0
4	12736	42432.314078752251	4
4	12737	42432.636924817289	1
4	12738	42433.121379540164	2
4	12739	42442.45394316761	3
4	12742	42452.9724122391	0
4	12745	42459.399538317072	0
4	12752	42476.186890714099	1
4	12753	42477.434099389736	0
4	12754	42480.118456474907	3
4	12759	42489.413270830511	6
4	12762	42499.206110778801	3
4	12763	42508.401717386838	1
4	12764	42520.100653771994	2
4	12769	42534.6449535929	2
4	12774	42547.329554382083	0
4	12775	42549.323054386835	1
4	12778	42552.357368105478	0
4	12779	42556.800287578506	2
4	12784	42572.344699471713	1
4	12793	42602.863520737896	0
4	12796	42613.968265108498	3
4	12797	42616.507373870576	1
4	12798	42619.068533900185	4
4	12799	42621.590940469371	5
4	12810	42638.693161874717	0
4	12811	42639.600851935531	1
4	12816	42645.48104837401	1
4	12817	42655.433152969582	6
4	12818	42655.708590385745	4
4	12819	42662.625816754664	3
4	12822	42670.940930860282	5
4	12823	42674.828330317047	1
4	12828	42690.219678615315	1
4	12829	42696.666645008488	3
4	12830	42702.818364132134	2
4	12833	42737.549312242748	0
4	12838	42751.009606449865	0
4	12841	42757.234999556345	1
4	12846	42763.443229686544	0
4	12849	42773.631965560628	1
4	12850	42774.336357266738	2
4	12851	42774.776698917295	3
4	12854	42789.89808134889	1
4	12859	42805.496925299375	0
4	12860	42805.78831315679	1
4	12873	42819.310699361322	3
4	12878	42823.573749938765	3
4	12881	42828.067770975904	7
4	12882	42829.585544595139	0
4	12883	42829.67766062038	6
4	12884	42829.924776381381	3
4	12885	42832.650271688236	1
4	12888	42838.961090970043	2
4	12893	42847.536660463597	5
4	12896	42859.025431373586	0
4	12897	42868.410335582339	1
4	12900	42871.178421855788	3
4	12901	42878.681739411094	2
4	12904	42885.032912530588	0
4	12905	42890.868709209009	1
4	12906	42900.644257167608	4
4	12913	42907.611319629309	1
4	12920	42933.747627100147	2
4	12923	42938.444767395681	4
4	12926	42948.857435704404	1
4	12927	42951.138660623679	0
4	12928	42955.659636898161	4
4	12933	42969.527129906535	2
4	12934	42982.596193255733	1
4	12937	42990.374669285952	3
4	12940	42991.387590776884	0
4	12949	43016.287442129611	3
4	12950	43018.933878821015	0
4	12951	43022.455569668604	4
4	12952	43032.846493214482	1
4	12959	43059.286988603999	0
4	12966	43072.18654924482	4
4	12967	43090.344522903242	0
4	12968	43090.945677379788	1
4	12969	43095.83178126376	6
4	12970	43098.289186472522	5
4	12975	43108.478405632499	3
4	12976	43115.564698520547	2
4	12979	43133.964355340215	2
4	12980	43138.705571954147	1
4	12983	43141.858619177448	1
4	12988	43176.652734638821	0
4	12989	43177.194746389055	2
4	12994	43185.928495625501	1
4	12995	43191.012762117997	0

