version 2
run General-0-20171214-10:08:25-1904
attr configname General
attr datetime 20171214-10:08:25
attr experiment General
attr inifile carrefour.ini
attr iterationvars ""
attr iterationvarsf ""
attr measurement ""
attr network Carrefour
attr processid 1904
attr repetition 0
attr replication #0
attr resultdir results
attr runnumber 0
attr seedset 0
param **.lambda 100
param **.numeroCasse 2
param **.mu 120
param **.tipoSimulazione 0

vector 0 Carrefour.coda InterrivalStat:vector ETV
attr source Interarrivals
attr title "InterArrivals, vector"
vector 1 Carrefour.coda QueuingStat:vector ETV
attr source Queuing
attr title "Time in Queue, vector"
0	1	7	7
0	4	461.685667504434	454.68566750443
0	6	483.853538080695	22.167870576261
0	8	484.200858266935	0.34732018624
0	14	611.313797197259	127.11293893032
0	15	656.57159659465	45.257799397391
0	16	867.317109902825	210.74551330817
0	17	868.666374689052	1.349264786227
0	18	949.616974452566	80.950599763514
0	19	1019.891901920869	70.274927468303
0	20	1095.630273785167	75.738371864298
0	21	1162.267756659976	66.637482874809
0	22	1522.890794840714	360.62303818074
0	23	1541.536133303099	18.645338462385
0	24	1562.868751616919	21.33261831382
0	25	1644.667318975223	81.798567358304
0	26	1649.760351660854	5.093032685631
0	27	1666.290776749728	16.530425088874
0	28	1762.641490493329	96.350713743601
0	29	1843.544150011996	80.902659518667
0	30	1952.248540059188	108.70439004719
0	31	2002.902933365652	50.654393306464
0	32	2051.06998379946	48.167050433808
0	33	2063.664143563504	12.594159764044
0	34	2115.547940727512	51.883797164008
0	35	2413.670648554309	298.1227078268
0	36	2619.161279927056	205.49063137275
0	37	2690.671741584149	71.510461657093
0	38	3048.493055417181	357.82131383303
0	39	3236.496994176432	188.00393875925
0	40	3518.592283809725	282.09528963329
0	41	3521.756282248797	3.163998439072
0	42	3561.000915279198	39.244633030401
0	43	3638.469947562964	77.469032283766
0	44	3670.253364033293	31.783416470329
0	45	3751.113035302124	80.859671268831
0	46	3997.383274889082	246.27023958696
0	47	4112.727104088199	115.34382919912
0	48	4129.259283863758	16.532179775559
0	49	4166.66263962678	37.403355763022
0	50	4298.77504912174	132.11240949496
0	51	4346.344490038897	47.569440917157
0	52	4353.984749821271	7.640259782374
0	53	4423.95843427159	69.973684450319
0	54	4474.207760509118	50.249326237528
0	55	4489.164327862496	14.956567353378
0	56	4496.907967113527	7.743639251031
0	57	4641.870216651503	144.96224953798
0	58	5027.304530852946	385.43431420144
0	59	5206.636410019302	179.33187916636
0	60	5334.911990073621	128.27558005432
0	61	5498.991610709966	164.07962063634
0	62	5650.23668331492	151.24507260495
0	63	5661.851471852438	11.614788537518
0	64	5689.039743598239	27.188271745801
0	65	5823.722626559676	134.68288296144
0	66	5831.116942937324	7.394316377648
0	67	6020.391884704587	189.27494176726
0	68	6092.563203247186	72.171318542599
0	69	6193.572518457013	101.00931520983
0	70	6270.51565977784	76.943141320827
0	71	6363.795080759428	93.279420981588
0	72	6402.974205087524	39.179124328096
0	73	6459.322361794712	56.348156707188
0	74	6463.530345930446	4.207984135734
0	75	6536.607967022946	73.0776210925
0	76	6550.376210284359	13.768243261413
0	77	6554.508716066354	4.132505781995
0	78	6636.399967451197	81.891251384843
0	79	6778.038448364283	141.63848091309
0	80	6818.794201703219	40.755753338936
0	81	7164.158386506283	345.36418480306
0	82	7333.150852837296	168.99246633101
0	83	7413.912080882833	80.761228045537
1	1	7	0
1	4	461.685667504434	0
1	6	483.853538080695	0
1	10	501.591043773523	17.390185506588
