version 2
run General-0-20171214-10:37:49-1644
attr configname General
attr datetime 20171214-10:37:49
attr experiment General
attr inifile carrefour.ini
attr iterationvars ""
attr iterationvarsf ""
attr measurement ""
attr network Carrefour
attr processid 1644
attr repetition 0
attr replication #0
attr resultdir results
attr runnumber 0
attr seedset 0
param **.lambda 111
param **.numeroCasse 5
param **.mu 200
param **.tipoSimulazione 0

vector 0 Carrefour.coda QueueLenghtStat:vector ETV
attr source QueueLenght
attr title "Queue Lenght, vector"
vector 1 Carrefour.coda QueuingStat:vector ETV
attr source Queuing
attr title "Time in Queue, vector"
0	1	7	1
0	1	7	0
0	3	101.188592533541	1
0	3	101.188592533541	0
0	6	390.312778239536	1
0	6	390.312778239536	0
0	9	421.492971346666	1
0	9	421.492971346666	0
0	12	548.996346547557	1
0	12	548.996346547557	0
0	15	554.159934392918	1
0	15	554.159934392918	0
0	19	1071.958692693758	1
0	19	1071.958692693758	0
0	22	1215.166283615371	1
0	22	1215.166283615371	0
0	24	1375.970136703708	1
0	24	1375.970136703708	0
0	28	1559.263091269473	1
0	28	1559.263091269473	0
0	30	1641.997083977748	1
0	30	1641.997083977748	0
0	32	1755.680607301227	1
0	32	1755.680607301227	0
0	36	1860.80877542105	1
0	36	1860.80877542105	0
0	38	1881.359301316626	1
0	38	1881.359301316626	0
0	43	2401.610102557111	1
0	43	2401.610102557111	0
0	46	2491.579706518374	1
0	46	2491.579706518374	0
0	49	2505.62386913166	1
0	49	2505.62386913166	0
0	51	2577.290873685355	1
0	51	2577.290873685355	0
0	54	2680.768990025889	1
0	54	2680.768990025889	0
0	56	2702.178562814839	1
0	56	2702.178562814839	0
0	58	2706.494344324502	1
0	58	2706.494344324502	0
0	60	2726.103634246007	1
0	60	2726.103634246007	0
0	66	3264.972309257852	1
0	66	3264.972309257852	0
0	70	3495.822991849181	1
0	70	3495.822991849181	0
0	73	3660.393837691775	1
0	73	3660.393837691775	0
0	76	3787.056441654253	1
0	76	3787.056441654253	0
0	78	3831.47699251661	1
0	78	3831.47699251661	0
0	80	4008.840836555157	1
0	80	4008.840836555157	0
0	84	4179.796778432996	1
0	84	4179.796778432996	0
0	87	4235.204958903791	1
0	87	4235.204958903791	0
0	89	4318.535791960281	1
0	89	4318.535791960281	0
0	91	4350.395843175696	1
0	91	4350.395843175696	0
0	96	4600.209758648627	1
0	96	4600.209758648627	0
0	99	4665.917971661823	1
0	99	4665.917971661823	0
0	103	4775.836736231564	1
0	103	4775.836736231564	0
0	105	4809.536458467783	1
0	105	4809.536458467783	0
0	107	4987.288905326446	1
0	107	4987.288905326446	0
0	110	5121.735914917014	1
0	110	5121.735914917014	0
0	112	5161.16970979926	1
0	112	5161.16970979926	0
0	114	5213.838384888831	1
0	114	5213.838384888831	0
0	116	5240.054481067993	1
0	116	5240.054481067993	1
0	118	5353.227640118043	0
0	120	5401.037467829239	1
0	120	5401.037467829239	1
0	122	5428.752117818443	0
0	124	5516.601959335723	1
0	124	5516.601959335723	1
0	126	5534.191366624371	0
0	133	6092.158078245736	1
0	133	6092.158078245736	0
0	135	6126.531294347975	1
0	135	6126.531294347975	0
0	137	6151.439724170083	1
0	137	6151.439724170083	0
0	142	6304.788204494212	1
0	142	6304.788204494212	0
0	145	6365.864432781012	1
0	145	6365.864432781012	0
0	148	6776.962400020067	1
0	148	6776.962400020067	0
0	150	6783.724322184733	1
0	150	6783.724322184733	0
0	154	6877.900119633442	1
0	154	6877.900119633442	0
0	156	6971.622360786213	1
0	156	6971.622360786213	0
0	158	6990.462440203046	1
0	158	6990.462440203046	0
0	161	7034.96530323233	1
0	161	7034.96530323233	0
0	165	7369.77816634638	1
0	165	7369.77816634638	0
0	169	7472.04989884803	1
0	169	7472.04989884803	0
0	171	7704.457430340267	1
0	171	7704.457430340267	0
0	174	7900.112825962066	1
0	174	7900.112825962066	0
0	176	7904.615947664013	1
0	176	7904.615947664013	0
0	178	7921.376672774074	1
0	178	7921.376672774074	0
0	180	7942.859927212545	1
0	180	7942.859927212545	0
0	182	7961.502341579885	1
0	182	7961.502341579885	1
0	183	7986.585641982966	2
0	183	7986.585641982966	2
0	185	8017.860563273374	1
0	188	8041.319873974219	0
0	192	8341.884741624627	1
0	192	8341.884741624627	0
0	194	8344.743108605935	1
0	194	8344.743108605935	0
0	200	8506.390363739266	1
0	200	8506.390363739266	0
0	202	8639.093297590778	1
0	202	8639.093297590778	0
0	204	8671.317251226016	1
0	204	8671.317251226016	0
0	207	8723.917427252579	1
0	207	8723.917427252579	0
0	213	9133.466397997626	1
0	213	9133.466397997626	0
0	215	9190.776540451758	1
0	215	9190.776540451758	0
0	217	9268.404635761382	1
0	217	9268.404635761382	0
0	221	9314.010276135234	1
0	221	9314.010276135234	0
0	225	9437.474837561812	1
0	225	9437.474837561812	0
0	227	9468.619747682558	1
0	227	9468.619747682558	0
0	230	9526.339354983729	1
0	230	9526.339354983729	0
0	233	9557.372523768481	1
0	233	9557.372523768481	0
0	237	9717.490639535561	1
0	237	9717.490639535561	0
0	240	9789.396137386384	1
0	240	9789.396137386384	0
0	243	9968.168969948342	1
0	243	9968.168969948342	0
0	245	9981.794359130008	1
0	245	9981.794359130008	0
0	247	10038.082826846251	1
0	247	10038.082826846251	0
0	251	10162.547698013432	1
0	251	10162.547698013432	0
0	253	10196.54362745988	1
0	253	10196.54362745988	0
0	255	10220.55919996572	1
0	255	10220.55919996572	0
0	260	10335.89954924546	1
0	260	10335.89954924546	0
0	262	10337.538009333761	1
0	262	10337.538009333761	0
0	264	10364.498116505733	1
0	264	10364.498116505733	0
0	267	10389.985071708649	1
0	267	10389.985071708649	0
0	271	10461.322862227842	1
0	271	10461.322862227842	0
0	276	10613.76352384496	1
0	276	10613.76352384496	0
0	279	10823.523112263521	1
0	279	10823.523112263521	0
0	282	11140.763813026202	1
0	282	11140.763813026202	0
0	285	11321.538006643685	1
0	285	11321.538006643685	0
0	288	11397.420664006073	1
0	288	11397.420664006073	0
0	290	11446.738544187901	1
0	290	11446.738544187901	0
0	293	11602.646555609145	1
0	293	11602.646555609145	0
0	297	12246.095471188307	1
0	297	12246.095471188307	0
0	300	12311.224969048611	1
0	300	12311.224969048611	0
0	302	12326.420466783854	1
0	302	12326.420466783854	0
0	306	12494.119094592572	1
0	306	12494.119094592572	0
0	308	12500.28674383054	1
0	308	12500.28674383054	0
0	310	12513.918170604515	1
0	310	12513.918170604515	0
0	314	12788.827749616359	1
0	314	12788.827749616359	0
0	317	12834.501564595965	1
0	317	12834.501564595965	0
0	321	12967.057969304337	1
0	321	12967.057969304337	0
0	323	13028.133650611507	1
0	323	13028.133650611507	0
0	325	13257.707839559181	1
0	325	13257.707839559181	0
0	327	13314.22376876432	1
0	327	13314.22376876432	0
0	333	13748.280615134367	1
0	333	13748.280615134367	0
0	335	13807.23269143908	1
0	335	13807.23269143908	0
0	337	13808.574245764478	1
0	337	13808.574245764478	0
0	339	13886.379576982977	1
0	339	13886.379576982977	0
0	344	13982.170710113877	1
0	344	13982.170710113877	0
0	346	14012.617781929597	1
0	346	14012.617781929597	0
0	349	14065.600300875373	1
0	349	14065.600300875373	0
0	353	14266.761275562223	1
0	353	14266.761275562223	0
0	357	14519.943668915736	1
0	357	14519.943668915736	0
0	360	14638.453848583497	1
0	360	14638.453848583497	0
0	362	14660.427982805034	1
0	362	14660.427982805034	0
0	365	14842.378568268721	1
0	365	14842.378568268721	0
0	367	14896.27003911335	1
0	367	14896.27003911335	0
0	369	14896.593176576492	1
0	369	14896.593176576492	0
0	371	14898.528930780978	1
0	371	14898.528930780978	0
0	373	14899.399534314995	1
0	373	14899.399534314995	1
0	375	14971.816229928957	0
0	377	15044.16261599653	1
0	377	15044.16261599653	1
0	379	15097.079244534565	0
0	386	15499.576392207547	1
0	386	15499.576392207547	0
0	388	15508.554718153378	1
0	388	15508.554718153378	0
0	391	15560.531345178147	1
0	391	15560.531345178147	0
0	393	15648.950489920645	1
0	393	15648.950489920645	0
0	398	15730.711511810757	1
0	398	15730.711511810757	0
0	401	15799.147492622904	1
0	401	15799.147492622904	0
0	403	15840.112030913359	1
0	403	15840.112030913359	0
0	407	15987.100272201927	1
0	407	15987.100272201927	0
0	409	16097.962240636972	1
0	409	16097.962240636972	0
0	411	16132.179706645969	1
0	411	16132.179706645969	0
0	413	16220.807366170423	1
0	413	16220.807366170423	0
0	415	16260.884377623969	1
0	415	16260.884377623969	0
0	417	16297.945514079294	1
0	417	16297.945514079294	1
0	419	16307.897429972353	0
0	423	16393.90651131523	1
0	423	16393.90651131523	0
0	426	16561.785351437129	1
0	426	16561.785351437129	0
0	431	16728.840392197327	1
0	431	16728.840392197327	0
0	433	16823.276257714842	1
0	433	16823.276257714842	0
0	435	16873.227704596179	1
0	435	16873.227704596179	0
0	437	16875.644359608102	1
0	437	16875.644359608102	0
0	443	17108.353345572338	1
0	443	17108.353345572338	0
0	445	17129.547517415831	1
0	445	17129.547517415831	0
0	447	17200.61142755349	1
0	447	17200.61142755349	0
0	449	17203.313860698434	1
0	449	17203.313860698434	0
0	451	17226.139086788741	1
0	451	17226.139086788741	1
0	453	17249.421755116341	0
0	458	17460.784427436034	1
0	458	17460.784427436034	0
0	461	17506.500132007663	1
0	461	17506.500132007663	0
0	463	17517.143295698489	1
0	463	17517.143295698489	0
0	465	17573.393094839496	1
0	465	17573.393094839496	0
0	470	17759.196061105102	1
0	470	17759.196061105102	0
0	473	17858.729488471841	1
0	473	17858.729488471841	0
0	477	17966.225926259042	1
0	477	17966.225926259042	0
0	479	18087.483653427905	1
0	479	18087.483653427905	0
0	481	18125.05139162005	1
0	481	18125.05139162005	0
0	485	18364.122124880866	1
0	485	18364.122124880866	0
0	488	18420.811835321705	1
0	488	18420.811835321705	0
0	491	18667.596898192735	1
0	491	18667.596898192735	0
0	495	18885.00054520077	1
0	495	18885.00054520077	0
0	498	18941.226013243521	1
0	498	18941.226013243521	0
0	500	18950.937750818933	1
0	500	18950.937750818933	0
0	504	19067.842475624529	1
0	504	19067.842475624529	0
0	507	19169.39404508008	1
0	507	19169.39404508008	0
0	511	19289.489833449363	1
0	511	19289.489833449363	0
0	513	19309.388515194924	1
0	513	19309.388515194924	0
0	515	19316.699966596936	1
0	515	19316.699966596936	0
0	520	19558.045622917954	1
0	520	19558.045622917954	0
0	523	19626.068139366997	1
0	523	19626.068139366997	0
0	525	19650.08085330224	1
0	525	19650.08085330224	0
0	527	19662.73735790342	1
0	527	19662.73735790342	0
0	529	19812.276214593142	1
0	529	19812.276214593142	0
0	533	19902.097485008681	1
0	533	19902.097485008681	0
0	535	19908.832552454308	1
0	535	19908.832552454308	0
0	540	20086.722020052455	1
0	540	20086.722020052455	0
0	542	20100.471634456696	1
0	542	20100.471634456696	0
0	546	20431.810841496044	1
0	546	20431.810841496044	0
0	550	20525.894982776382	1
0	550	20525.894982776382	0
0	553	20572.403435330435	1
0	553	20572.403435330435	0
0	556	20739.011551536908	1
0	556	20739.011551536908	0
0	558	20943.191485829374	1
0	558	20943.191485829374	0
0	560	20966.907784340708	1
0	560	20966.907784340708	0
0	563	21070.536503207448	1
0	563	21070.536503207448	0
0	565	21090.753469832377	1
0	565	21090.753469832377	0
0	568	21188.25502664041	1
0	568	21188.25502664041	0
0	572	21293.925316546321	1
0	572	21293.925316546321	0
0	574	21503.312768251179	1
0	574	21503.312768251179	0
0	576	21505.590129153183	1
0	576	21505.590129153183	0
0	583	21986.428313321329	1
0	583	21986.428313321329	0
0	586	22568.916015345274	1
0	586	22568.916015345274	0
0	588	22734.646576166961	1
0	588	22734.646576166961	0
0	592	22937.390698715916	1
0	592	22937.390698715916	0
0	595	22974.404448640012	1
0	595	22974.404448640012	0
0	597	23006.443039274433	1
0	597	23006.443039274433	0
0	600	23027.349831644834	1
0	600	23027.349831644834	0
0	602	23036.623531789895	1
0	602	23036.623531789895	0
0	607	23271.762188678941	1
0	607	23271.762188678941	0
0	609	23321.272368641802	1
0	609	23321.272368641802	0
0	613	23561.154449670594	1
0	613	23561.154449670594	0
0	615	23622.200547060472	1
0	615	23622.200547060472	0
0	618	23684.270773999552	1
0	618	23684.270773999552	0
0	622	24222.137741733393	1
0	622	24222.137741733393	0
0	624	24243.037578564581	1
0	624	24243.037578564581	0
0	628	24395.335994888583	1
0	628	24395.335994888583	0
0	630	24414.627488838407	1
0	630	24414.627488838407	0
0	634	24691.201963536262	1
0	634	24691.201963536262	0
0	637	25308.735152103517	1
0	637	25308.735152103517	0
0	639	25313.083707040902	1
0	639	25313.083707040902	0
0	643	25486.9348213928	1
0	643	25486.9348213928	0
0	645	25531.716202259166	1
0	645	25531.716202259166	0
0	647	25634.395076092554	1
0	647	25634.395076092554	0
0	649	25691.58328244542	1
0	649	25691.58328244542	0
0	652	25810.520361709806	1
0	652	25810.520361709806	0
0	656	25959.566795679365	1
0	656	25959.566795679365	0
0	658	25971.160070030939	1
0	658	25971.160070030939	0
0	661	26040.8489436338	1
0	661	26040.8489436338	0
0	664	26104.314652551758	1
0	664	26104.314652551758	0
0	666	26190.760172928361	1
0	666	26190.760172928361	0
0	668	26257.996958444441	1
0	668	26257.996958444441	1
0	670	26267.252905597097	0
0	675	26529.335201718834	1
0	675	26529.335201718834	0
0	677	26530.23745274635	1
0	677	26530.23745274635	0
0	679	26571.38215845907	1
0	679	26571.38215845907	0
0	683	26662.665553247501	1
0	683	26662.665553247501	0
0	689	26996.90867095287	1
0	689	26996.90867095287	0
0	691	27133.109161916984	1
0	691	27133.109161916984	0
0	694	27158.286936647416	1
0	694	27158.286936647416	0
0	696	27165.161476970245	1
0	696	27165.161476970245	0
0	699	27205.08666738837	1
0	699	27205.08666738837	0
0	701	27217.577377973905	1
0	701	27217.577377973905	0
0	703	27254.436455527883	1
0	703	27254.436455527883	0
0	707	27361.331374147448	1
0	707	27361.331374147448	0
0	710	27386.609319172483	1
0	710	27386.609319172483	0
0	712	27412.696842857462	1
0	712	27412.696842857462	0
0	715	27446.681394935446	1
0	715	27446.681394935446	0
0	717	27522.621797824003	1
0	717	27522.621797824003	1
0	719	27564.984489750442	0
0	721	27578.052005667659	1
0	721	27578.052005667659	1
0	722	27585.260450934946	2
0	722	27585.260450934946	2
0	723	27604.241908975651	3
0	723	27604.241908975651	3
0	725	27705.255609824946	2
0	727	27763.112681173859	3
0	727	27763.112681173859	3
0	729	27804.926220182773	2
0	732	27805.453109088656	1
0	735	27810.612708707972	0
0	740	27995.785720938177	1
0	740	27995.785720938177	0
0	742	28011.49918826484	1
0	742	28011.49918826484	0
0	744	28054.572278214578	1
0	744	28054.572278214578	0
0	748	28096.126956741462	1
0	748	28096.126956741462	0
0	750	28110.531008469796	1
0	750	28110.531008469796	0
0	752	28121.697676510941	1
0	752	28121.697676510941	1
0	753	28125.944642038728	2
0	753	28125.944642038728	2
0	755	28130.418029019542	1
0	757	28234.838100593387	2
0	757	28234.838100593387	2
0	758	28303.279712840604	3
0	758	28303.279712840604	3
0	760	28319.646015737914	2
0	763	28326.496685622733	1
0	765	28331.814754166464	2
0	765	28331.814754166464	2
0	766	28376.918041878722	3
0	766	28376.918041878722	3
0	768	28392.453595795058	2
0	771	28405.460250273404	1
0	774	28411.141792176993	0
0	777	28417.172264481972	1
0	777	28417.172264481972	0
0	783	28596.929425403209	1
0	783	28596.929425403209	0
0	785	28613.683904918052	1
0	785	28613.683904918052	0
0	789	28819.916820692137	1
0	789	28819.916820692137	0
0	792	28840.872369169059	1
0	792	28840.872369169059	0
0	794	28864.398930207614	1
0	794	28864.398930207614	0
0	799	29241.921806944702	1
0	799	29241.921806944702	0
0	802	29334.065078788093	1
0	802	29334.065078788093	0
0	804	29455.442213491701	1
0	804	29455.442213491701	0
0	807	29702.358802353924	1
0	807	29702.358802353924	0
0	809	29722.100798038233	1
0	809	29722.100798038233	0
0	811	29724.766031822981	1
0	811	29724.766031822981	0
0	816	29993.042009982723	1
0	816	29993.042009982723	0
0	818	30046.553913754547	1
0	818	30046.553913754547	0
0	821	30189.320191163908	1
0	821	30189.320191163908	0
0	824	30550.605105538792	1
0	824	30550.605105538792	0
0	827	30575.549216655581	1
0	827	30575.549216655581	0
0	830	30629.624015660127	1
0	830	30629.624015660127	0
0	834	31122.675224147284	1
0	834	31122.675224147284	0
0	836	31230.293682236707	1
0	836	31230.293682236707	0
0	840	31284.546243349377	1
0	840	31284.546243349377	0
0	843	31312.494586154258	1
0	843	31312.494586154258	0
0	845	31339.287085245096	1
0	845	31339.287085245096	0
0	847	31347.685158872343	1
0	847	31347.685158872343	0
0	851	31557.457585373391	1
0	851	31557.457585373391	0
0	853	31558.659711751423	1
0	853	31558.659711751423	0
0	855	31577.286315441471	1
0	855	31577.286315441471	0
0	859	31655.454073853756	1
0	859	31655.454073853756	0
0	861	31668.341244847686	1
0	861	31668.341244847686	0
0	866	32137.498977888224	1
0	866	32137.498977888224	0
0	869	32161.980655382951	1
0	869	32161.980655382951	0
0	871	32179.363175088485	1
0	871	32179.363175088485	0
0	877	32702.346124984658	1
0	877	32702.346124984658	0
0	880	32841.926156454113	1
0	880	32841.926156454113	0
0	882	32922.497608460379	1
0	882	32922.497608460379	0
0	884	32965.5689036811	1
0	884	32965.5689036811	0
0	888	33033.431571211109	1
0	888	33033.431571211109	0
0	891	33089.71811285145	1
0	891	33089.71811285145	0
0	894	33405.263205234584	1
0	894	33405.263205234584	0
0	897	33446.278809676861	1
0	897	33446.278809676861	0
0	900	33560.86814428281	1
0	900	33560.86814428281	0
0	902	33698.539870063939	1
0	902	33698.539870063939	0
0	904	33724.996992454618	1
0	904	33724.996992454618	0
0	910	33835.651142737956	1
0	910	33835.651142737956	0
0	912	33934.463944927557	1
0	912	33934.463944927557	0
0	915	33947.840768688431	1
0	915	33947.840768688431	0
0	917	33992.279035223862	1
0	917	33992.279035223862	0
0	922	34112.09087165848	1
0	922	34112.09087165848	0
0	924	34152.245411385189	1
0	924	34152.245411385189	0
0	926	34359.145175021817	1
0	926	34359.145175021817	0
0	928	34372.652838148998	1
0	928	34372.652838148998	0
0	934	34704.653110309562	1
0	934	34704.653110309562	0
0	936	34727.854465095248	1
0	936	34727.854465095248	0
0	940	35294.279496943525	1
0	940	35294.279496943525	0
0	942	35353.018540041753	1
0	942	35353.018540041753	0
0	945	35378.843938013568	1
0	945	35378.843938013568	0
0	949	35484.91526262806	1
0	949	35484.91526262806	0
0	952	35531.541546355908	1
0	952	35531.541546355908	0
0	954	35681.175957117687	1
0	954	35681.175957117687	0
0	958	35821.125211229764	1
0	958	35821.125211229764	0
0	960	35893.706951287227	1
0	960	35893.706951287227	0
0	962	35942.251520294048	1
0	962	35942.251520294048	0
0	965	36043.257077378629	1
0	965	36043.257077378629	0
0	968	36117.063178223687	1
0	968	36117.063178223687	0
0	971	36190.474873396952	1
0	971	36190.474873396952	0
0	975	36212.513817543411	1
0	975	36212.513817543411	0
0	978	36356.735282360201	1
0	978	36356.735282360201	0
0	980	36375.34073331852	1
0	980	36375.34073331852	0
0	982	36500.099665947983	1
0	982	36500.099665947983	0
0	985	36616.393905070662	1
0	985	36616.393905070662	0
0	990	36706.188618881346	1
0	990	36706.188618881346	0
0	993	36749.299621004317	1
0	993	36749.299621004317	0
0	996	36912.026360111765	1
0	996	36912.026360111765	0
0	1000	37189.274973934432	1
0	1000	37189.274973934432	0
0	1002	37215.068549681507	1
0	1002	37215.068549681507	0
0	1005	37337.091465941464	1
0	1005	37337.091465941464	0
0	1007	37368.223614307607	1
0	1007	37368.223614307607	0
0	1011	37455.437991675997	1
0	1011	37455.437991675997	0
0	1013	37458.214469070537	1
0	1013	37458.214469070537	0
0	1018	37902.074289859309	1
0	1018	37902.074289859309	0
0	1021	38006.589446773986	1
0	1021	38006.589446773986	0
0	1023	38047.279383426843	1
0	1023	38047.279383426843	0
0	1026	38074.515942219247	1
0	1026	38074.515942219247	0
0	1028	38081.227639454035	1
0	1028	38081.227639454035	0
0	1031	38331.356358945297	1
0	1031	38331.356358945297	0
0	1034	38360.159418370771	1
0	1034	38360.159418370771	0
0	1038	38552.828134392429	1
0	1038	38552.828134392429	0
0	1041	38593.951866551428	1
0	1041	38593.951866551428	0
0	1044	38695.398174214815	1
0	1044	38695.398174214815	0
0	1046	38813.20485354212	1
0	1046	38813.20485354212	0
0	1048	38821.142353395532	1
0	1048	38821.142353395532	0
0	1050	38913.718682927406	1
0	1050	38913.718682927406	0
0	1055	39130.938610707506	1
0	1055	39130.938610707506	0
0	1058	39265.695911253501	1
0	1058	39265.695911253501	0
0	1062	39409.825134320858	1
0	1062	39409.825134320858	0
0	1065	39438.003210061451	1
0	1065	39438.003210061451	0
0	1069	39775.584797849815	1
0	1069	39775.584797849815	0
0	1071	39801.185580676542	1
0	1071	39801.185580676542	0
0	1073	39868.256580454419	1
0	1073	39868.256580454419	0
0	1075	39879.654839556198	1
0	1075	39879.654839556198	0
0	1080	40019.164738136	1
0	1080	40019.164738136	0
0	1083	40027.425086420348	1
0	1083	40027.425086420348	0
0	1085	40068.671874872155	1
0	1085	40068.671874872155	0
0	1089	40433.688255605446	1
0	1089	40433.688255605446	0
0	1092	40478.123086104585	1
0	1092	40478.123086104585	0
0	1095	40541.349930234453	1
0	1095	40541.349930234453	0
0	1097	40601.715798774761	1
0	1097	40601.715798774761	0
0	1101	40674.639828881068	1
0	1101	40674.639828881068	0
0	1105	40857.883953655218	1
0	1105	40857.883953655218	0
0	1107	40865.669263718028	1
0	1107	40865.669263718028	0
0	1111	41153.223694697803	1
0	1111	41153.223694697803	0
0	1113	41263.251021270149	1
0	1113	41263.251021270149	0
0	1115	41281.739175295549	1
0	1115	41281.739175295549	0
0	1118	41353.347715311222	1
0	1118	41353.347715311222	0
0	1123	41603.621877285523	1
0	1123	41603.621877285523	0
0	1126	41648.820396428946	1
0	1126	41648.820396428946	0
0	1128	41674.813321997808	1
0	1128	41674.813321997808	0
0	1130	41739.442968382819	1
0	1130	41739.442968382819	0
0	1132	41842.568214341728	1
0	1132	41842.568214341728	0
0	1134	41868.535989224121	1
0	1134	41868.535989224121	0
0	1136	41869.41311703956	1
0	1136	41869.41311703956	1
0	1138	41875.279582852345	0
0	1141	41908.516434608339	1
0	1141	41908.516434608339	0
0	1146	42077.019846460174	1
0	1146	42077.019846460174	0
0	1148	42105.542541402066	1
0	1148	42105.542541402066	0
0	1154	42496.511839165894	1
0	1154	42496.511839165894	0
0	1156	42558.659167808197	1
0	1156	42558.659167808197	0
0	1159	42642.079255449923	1
0	1159	42642.079255449923	0
0	1162	42750.131518439337	1
0	1162	42750.131518439337	0
0	1165	43099.704664905805	1
0	1165	43099.704664905805	0
0	1167	43102.866677668186	1
0	1167	43102.866677668186	0
0	1170	43183.091242484327	1
0	1170	43183.091242484327	0
0	1172	43236.606472780516	1
0	1172	43236.606472780516	0
0	1175	43273.051305607182	1
0	1175	43273.051305607182	0
0	1178	43330.747754064087	1
0	1178	43330.747754064087	0
0	1184	43497.273845773674	1
0	1184	43497.273845773674	0
0	1186	43499.624227534795	1
0	1186	43499.624227534795	0
0	1188	43532.671215086545	1
0	1188	43532.671215086545	0
0	1192	43629.661644162114	1
0	1192	43629.661644162114	0
0	1194	43661.400356620587	1
0	1194	43661.400356620587	0
0	1196	43676.193924488204	1
0	1196	43676.193924488204	0
0	1200	43900.576581283743	1
0	1200	43900.576581283743	0
0	1204	44013.096269488624	1
0	1204	44013.096269488624	0
0	1207	44068.213539352794	1
0	1207	44068.213539352794	0
0	1210	44381.437320395902	1
0	1210	44381.437320395902	0
0	1212	44388.398285976442	1
0	1212	44388.398285976442	0
0	1216	44604.392474057849	1
0	1216	44604.392474057849	0
0	1218	44621.042883717139	1
0	1218	44621.042883717139	0
0	1220	44647.85439625266	1
0	1220	44647.85439625266	0
0	1226	44844.767215013427	1
0	1226	44844.767215013427	0
0	1228	44985.597074590872	1
0	1228	44985.597074590872	0
0	1230	45003.065057656227	1
0	1230	45003.065057656227	0
0	1233	45325.136100413723	1
0	1233	45325.136100413723	0
0	1236	45357.201709606272	1
0	1236	45357.201709606272	0
0	1238	45407.440696770541	1
0	1238	45407.440696770541	0
0	1242	45467.351998928588	1
0	1242	45467.351998928588	0
0	1244	45541.234788925703	1
0	1244	45541.234788925703	0
0	1249	45983.252009418612	1
0	1249	45983.252009418612	0
0	1253	46460.112579864685	1
0	1253	46460.112579864685	0
0	1255	46527.245970007573	1
0	1255	46527.245970007573	0
0	1258	46787.091584006112	1
0	1258	46787.091584006112	0
0	1260	46884.133064874611	1
0	1260	46884.133064874611	0
0	1264	47049.041023929554	1
0	1264	47049.041023929554	0
0	1266	47062.490041569072	1
0	1266	47062.490041569072	0
0	1269	47099.892127854477	1
0	1269	47099.892127854477	0
0	1273	47215.349990007191	1
0	1273	47215.349990007191	0
0	1276	47424.082039633847	1
0	1276	47424.082039633847	0
0	1279	47463.872763773355	1
0	1279	47463.872763773355	0
0	1282	47595.23192206164	1
0	1282	47595.23192206164	0
0	1286	48088.708367044568	1
0	1286	48088.708367044568	0
0	1289	48438.526994791671	1
0	1289	48438.526994791671	0
0	1292	48516.327749348733	1
0	1292	48516.327749348733	0
0	1294	48521.142785263707	1
0	1294	48521.142785263707	0
0	1296	48541.279732820898	1
0	1296	48541.279732820898	0
0	1299	48870.560357041138	1
0	1299	48870.560357041138	0
0	1301	48874.179101895499	1
0	1301	48874.179101895499	0
0	1305	48984.00179997882	1
0	1305	48984.00179997882	0
0	1308	49089.793452337529	1
0	1308	49089.793452337529	0
0	1312	49181.450786217509	1
0	1312	49181.450786217509	0
0	1316	49664.518478703778	1
0	1316	49664.518478703778	0
0	1318	49880.373833980374	1
0	1318	49880.373833980374	0
0	1320	49893.919439294197	1
0	1320	49893.919439294197	0
0	1325	50054.924749368242	1
0	1325	50054.924749368242	0
0	1328	50144.031610567586	1
0	1328	50144.031610567586	0
0	1331	50226.408658799367	1
0	1331	50226.408658799367	0
0	1333	50266.552312691657	1
0	1333	50266.552312691657	0
0	1336	50289.312348191041	1
0	1336	50289.312348191041	0
0	1338	50394.745935416895	1
0	1338	50394.745935416895	0
0	1340	50400.173099726133	1
0	1340	50400.173099726133	0
0	1344	50663.559699730717	1
0	1344	50663.559699730717	0
0	1348	50849.141743250277	1
0	1348	50849.141743250277	0
0	1351	50981.937472117426	1
0	1351	50981.937472117426	0
0	1355	51176.998294733171	1
0	1355	51176.998294733171	0
0	1357	51188.034743925539	1
0	1357	51188.034743925539	0
0	1359	51193.624686210107	1
0	1359	51193.624686210107	0
0	1361	51217.759088821951	1
0	1361	51217.759088821951	0
0	1367	51732.812315749827	1
0	1367	51732.812315749827	0
0	1369	51966.244710522657	1
0	1369	51966.244710522657	0
0	1371	52021.287648279713	1
0	1371	52021.287648279713	0
0	1376	52164.387432163972	1
0	1376	52164.387432163972	0
0	1378	52208.539264823124	1
0	1378	52208.539264823124	0
0	1380	52240.058051743188	1
0	1380	52240.058051743188	0
0	1384	52546.826150533242	1
0	1384	52546.826150533242	0
0	1387	52696.566703351759	1
0	1387	52696.566703351759	0
0	1389	52701.169720578433	1
0	1389	52701.169720578433	0
0	1392	52703.818413954195	1
0	1392	52703.818413954195	0
0	1395	52727.418621742822	1
0	1395	52727.418621742822	0
0	1398	52796.916245531486	1
0	1398	52796.916245531486	0
0	1401	52825.354775436009	1
0	1401	52825.354775436009	0
0	1404	52854.166067618999	1
0	1404	52854.166067618999	0
0	1406	52855.706194648655	1
0	1406	52855.706194648655	0
0	1410	52975.232253748216	1
0	1410	52975.232253748216	0
0	1413	53148.49677301535	1
0	1413	53148.49677301535	0
0	1416	53171.63420406466	1
0	1416	53171.63420406466	0
0	1419	53308.66572761499	1
0	1419	53308.66572761499	0
0	1422	53540.418997744405	1
0	1422	53540.418997744405	0
0	1424	53568.914022959767	1
0	1424	53568.914022959767	0
0	1427	53653.994377006298	1
0	1427	53653.994377006298	0
0	1430	53731.765655930109	1
0	1430	53731.765655930109	0
0	1435	53794.909238644016	1
0	1435	53794.909238644016	0
0	1437	53795.28305276828	1
0	1437	53795.28305276828	0
0	1439	53800.536984567603	1
0	1439	53800.536984567603	0
0	1442	53981.892668682941	1
0	1442	53981.892668682941	0
0	1444	53988.543359110048	1
0	1444	53988.543359110048	0
0	1446	54013.772732270953	1
0	1446	54013.772732270953	1
0	1448	54028.785099738439	0
0	1455	54266.24708662746	1
0	1455	54266.24708662746	0
0	1457	54519.053473153232	1
0	1457	54519.053473153232	0
0	1459	54520.01495122423	1
0	1459	54520.01495122423	0
0	1461	54582.331587943335	1
0	1461	54582.331587943335	0
0	1463	54617.986556278581	1
0	1463	54617.986556278581	0
0	1470	55012.312544263089	1
0	1470	55012.312544263089	0
0	1472	55136.406038632032	1
0	1472	55136.406038632032	0
0	1474	55144.317294863957	1
0	1474	55144.317294863957	0
0	1477	55390.294276902018	1
0	1477	55390.294276902018	0
0	1481	55824.032987840754	1
0	1481	55824.032987840754	0
0	1485	55863.801818985947	1
0	1485	55863.801818985947	0
0	1488	56018.170163425309	1
0	1488	56018.170163425309	0
0	1490	56189.447259771825	1
0	1490	56189.447259771825	0
0	1494	56378.5712820861	1
0	1494	56378.5712820861	0
0	1496	56381.644312015494	1
0	1496	56381.644312015494	0
0	1498	56422.285220006539	1
0	1498	56422.285220006539	0
0	1500	56432.65003353208	1
0	1500	56432.65003353208	0
0	1502	56454.509656730102	1
0	1502	56454.509656730102	0
0	1507	56671.671393960579	1
0	1507	56671.671393960579	0
0	1509	56681.133166428672	1
0	1509	56681.133166428672	0
0	1514	56804.316029870735	1
0	1514	56804.316029870735	0
0	1517	56835.735353182171	1
0	1517	56835.735353182171	0
0	1520	56860.266441331893	1
0	1520	56860.266441331893	0
0	1522	56882.768561770662	1
0	1522	56882.768561770662	0
0	1524	56889.864783461338	1
0	1524	56889.864783461338	0
0	1527	56909.876458152096	1
0	1527	56909.876458152096	0
0	1529	56913.195749038537	1
0	1529	56913.195749038537	0
0	1532	56926.263320024299	1
0	1532	56926.263320024299	0
0	1535	56987.680705389997	1
0	1535	56987.680705389997	0
0	1537	57000.184536861441	1
0	1537	57000.184536861441	1
0	1539	57046.603593971769	0
0	1545	57255.47191046244	1
0	1545	57255.47191046244	0
0	1548	57403.772152889065	1
0	1548	57403.772152889065	0
0	1552	57511.124366386837	1
0	1552	57511.124366386837	0
0	1554	57531.302285937202	1
0	1554	57531.302285937202	0
0	1557	57605.446962968546	1
0	1557	57605.446962968546	0
0	1560	57720.897174824911	1
0	1560	57720.897174824911	0
0	1563	57816.626158925018	1
0	1563	57816.626158925018	0
0	1566	57864.225686483775	1
0	1566	57864.225686483775	0
0	1568	57932.34615282421	1
0	1568	57932.34615282421	0
0	1570	58173.225539666844	1
0	1570	58173.225539666844	0
0	1574	58243.35932963415	1
0	1574	58243.35932963415	0
0	1579	58744.045952002466	1
0	1579	58744.045952002466	0
0	1582	58772.51817643106	1
0	1582	58772.51817643106	0
0	1584	58826.459269726151	1
0	1584	58826.459269726151	0
0	1587	59149.067493613981	1
0	1587	59149.067493613981	0
0	1589	59200.843529333126	1
0	1589	59200.843529333126	0
0	1591	59203.573162622212	1
0	1591	59203.573162622212	0
0	1596	59355.808325585888	1
0	1596	59355.808325585888	0
0	1600	59520.650795895031	1
0	1600	59520.650795895031	0
0	1603	59632.510333016501	1
0	1603	59632.510333016501	0
0	1605	59667.544022908561	1
0	1605	59667.544022908561	0
0	1607	59702.399212851115	1
0	1607	59702.399212851115	0
0	1609	59705.251123648171	1
0	1609	59705.251123648171	0
0	1614	59794.590958220298	1
0	1614	59794.590958220298	0
0	1616	59804.800498055814	1
0	1616	59804.800498055814	0
0	1618	59809.47629554509	1
0	1618	59809.47629554509	0
0	1624	60034.279453921076	1
0	1624	60034.279453921076	0
0	1627	60091.821368852657	1
0	1627	60091.821368852657	0
0	1630	60174.518481799682	1
0	1630	60174.518481799682	0
0	1633	60251.616373679758	1
0	1633	60251.616373679758	0
0	1635	60417.222656981283	1
0	1635	60417.222656981283	0
0	1637	60443.998355228126	1
0	1637	60443.998355228126	0
0	1639	60461.951458363564	1
0	1639	60461.951458363564	0
0	1641	60474.798700246859	1
0	1641	60474.798700246859	0
0	1643	60476.776518711558	1
0	1643	60476.776518711558	1
0	1645	60477.975419876694	0
0	1647	60510.968754008431	1
0	1647	60510.968754008431	1
0	1649	60596.166773603041	0
0	1651	60627.382433422937	1
0	1651	60627.382433422937	1
0	1653	60651.937220034988	0
0	1656	60817.614177141893	1
0	1656	60817.614177141893	0
0	1658	60860.055213583889	1
0	1658	60860.055213583889	1
0	1660	60921.68990791052	0
0	1662	60934.63353809018	1
0	1662	60934.63353809018	1
0	1664	60961.852639230352	0
0	1668	60988.196151846683	1
0	1668	60988.196151846683	0
0	1671	61068.356790313396	1
0	1671	61068.356790313396	0
0	1677	61471.636183091262	1
0	1677	61471.636183091262	0
0	1679	61487.215233926246	1
0	1679	61487.215233926246	0
0	1681	61545.867991823748	1
0	1681	61545.867991823748	0
0	1684	61766.667261647083	1
0	1684	61766.667261647083	0
0	1688	62010.526649983973	1
0	1688	62010.526649983973	0
0	1690	62020.450471045796	1
0	1690	62020.450471045796	0
0	1692	62078.57381635477	1
0	1692	62078.57381635477	0
0	1695	62161.195897289814	1
0	1695	62161.195897289814	0
0	1697	62315.541928934498	1
0	1697	62315.541928934498	0
0	1704	62569.859903110771	1
0	1704	62569.859903110771	0
0	1706	62592.829568027427	1
0	1706	62592.829568027427	0
0	1708	62637.430562300729	1
0	1708	62637.430562300729	0
0	1713	63134.933210904697	1
0	1713	63134.933210904697	0
0	1716	63203.496743860784	1
0	1716	63203.496743860784	0
0	1718	63262.331942418147	1
0	1718	63262.331942418147	0
0	1720	63275.53239564611	1
0	1720	63275.53239564611	0
0	1724	63306.708084551206	1
0	1724	63306.708084551206	0
0	1726	63360.103873882282	1
0	1726	63360.103873882282	0
0	1729	63491.175124345339	1
0	1729	63491.175124345339	0
0	1731	63497.870901206464	1
0	1731	63497.870901206464	0
0	1734	63615.355083951094	1
0	1734	63615.355083951094	0
0	1736	63655.153528800043	1
0	1736	63655.153528800043	0
0	1743	64070.698147634842	1
0	1743	64070.698147634842	0
0	1745	64147.556659389471	1
0	1745	64147.556659389471	0
0	1749	64277.22763513766	1
0	1749	64277.22763513766	0
0	1751	64286.309519929794	1
0	1751	64286.309519929794	0
0	1754	64446.759638858321	1
0	1754	64446.759638858321	0
0	1758	64538.973507067938	1
0	1758	64538.973507067938	0
0	1760	64566.304210243692	1
0	1760	64566.304210243692	0
0	1763	64654.689598739458	1
0	1763	64654.689598739458	0
0	1765	64669.637087172103	1
0	1765	64669.637087172103	0
0	1767	64747.371358560518	1
0	1767	64747.371358560518	0
0	1770	64835.152809278797	1
0	1770	64835.152809278797	0
0	1773	64867.989242377487	1
0	1773	64867.989242377487	0
0	1779	65109.21892778574	1
0	1779	65109.21892778574	0
0	1781	65139.323860353366	1
0	1781	65139.323860353366	0
0	1785	65256.530252856971	1
0	1785	65256.530252856971	0
0	1788	65293.84725546979	1
0	1788	65293.84725546979	0
0	1791	65322.466742467608	1
0	1791	65322.466742467608	0
0	1793	65435.294016194415	1
0	1793	65435.294016194415	0
0	1795	65449.156509445403	1
0	1795	65449.156509445403	0
0	1798	65497.09322012884	1
0	1798	65497.09322012884	0
0	1800	65506.501016719096	1
0	1800	65506.501016719096	0
0	1802	65591.212725556291	1
0	1802	65591.212725556291	0
0	1807	65698.493155246235	1
0	1807	65698.493155246235	0
0	1809	65740.130757295117	1
0	1809	65740.130757295117	0
0	1813	65834.869238864698	1
0	1813	65834.869238864698	0
0	1816	65948.991538647698	1
0	1816	65948.991538647698	0
0	1818	65949.919574220135	1
0	1818	65949.919574220135	0
0	1823	66165.487450386617	1
0	1823	66165.487450386617	0
0	1826	66189.976780748039	1
0	1826	66189.976780748039	0
0	1828	66227.133672619248	1
0	1828	66227.133672619248	0
0	1832	66431.664801844533	1
0	1832	66431.664801844533	0
0	1834	66473.020930499009	1
0	1834	66473.020930499009	0
0	1837	66623.838086825104	1
0	1837	66623.838086825104	0
0	1842	66927.513513514997	1
0	1842	66927.513513514997	0
0	1845	67133.22360460618	1
0	1845	67133.22360460618	0
0	1848	67172.343946102592	1
0	1848	67172.343946102592	0
0	1850	67250.417853361553	1
0	1850	67250.417853361553	0
0	1853	67267.236467214137	1
0	1853	67267.236467214137	0
0	1855	67295.882625010621	1
0	1855	67295.882625010621	0
0	1857	67347.847483346664	1
0	1857	67347.847483346664	0
0	1861	67586.8723301786	1
0	1861	67586.8723301786	0
0	1865	67679.685156987087	1
0	1865	67679.685156987087	0
0	1868	67753.991912860931	1
0	1868	67753.991912860931	0
0	1871	67811.519852039615	1
0	1871	67811.519852039615	0
0	1873	67861.057997467017	1
0	1873	67861.057997467017	0
0	1876	68113.824420842561	1
0	1876	68113.824420842561	0
0	1878	68128.167491410213	1
0	1878	68128.167491410213	0
0	1881	68343.086300876876	1
0	1881	68343.086300876876	0
0	1883	68345.178276583776	1
0	1883	68345.178276583776	0
0	1888	68470.772632383749	1
0	1888	68470.772632383749	0
0	1890	68488.994724564695	1
0	1890	68488.994724564695	0
0	1892	68586.752302396166	1
0	1892	68586.752302396166	0
0	1896	68605.772593076077	1
0	1896	68605.772593076077	0
0	1899	68649.891980254997	1
0	1899	68649.891980254997	0
0	1905	69164.50403401703	1
0	1905	69164.50403401703	0
0	1907	69371.69589172138	1
0	1907	69371.69589172138	0
0	1910	69449.133889106228	1
0	1910	69449.133889106228	0
0	1912	69474.236503646536	1
0	1912	69474.236503646536	0
0	1915	69530.951319801507	1
0	1915	69530.951319801507	0
0	1917	69563.305569519453	1
0	1917	69563.305569519453	0
0	1921	69669.521195703521	1
0	1921	69669.521195703521	0
0	1924	69694.98477876273	1
0	1924	69694.98477876273	0
0	1926	69747.888114761281	1
0	1926	69747.888114761281	0
0	1928	69750.504485634508	1
0	1928	69750.504485634508	0
0	1931	69771.91547143266	1
0	1931	69771.91547143266	0
0	1936	69953.672894861295	1
0	1936	69953.672894861295	0
0	1939	69978.130375068456	1
0	1939	69978.130375068456	0
0	1941	70056.119811781401	1
0	1941	70056.119811781401	0
0	1943	70078.110506743688	1
0	1943	70078.110506743688	0
0	1945	70089.208636007452	1
0	1945	70089.208636007452	1
0	1947	70129.242391797289	0
0	1951	70275.446848511783	1
0	1951	70275.446848511783	0
0	1957	70814.07255793998	1
0	1957	70814.07255793998	0
0	1960	71208.052986134459	1
0	1960	71208.052986134459	0
0	1962	71442.163333956947	1
0	1962	71442.163333956947	0
0	1965	71466.109426767749	1
0	1965	71466.109426767749	0
0	1967	71505.686735759549	1
0	1967	71505.686735759549	0
0	1972	71649.397593444653	1
0	1972	71649.397593444653	0
0	1974	71755.401374081338	1
0	1974	71755.401374081338	0
0	1976	71769.037056438545	1
0	1976	71769.037056438545	0
0	1978	71778.528631714461	1
0	1978	71778.528631714461	0
0	1980	71817.9865507381	1
0	1980	71817.9865507381	0
0	1985	72024.849554206769	1
0	1985	72024.849554206769	0
0	1989	72123.526383238355	1
0	1989	72123.526383238355	0
0	1992	72195.700769723681	1
0	1992	72195.700769723681	0
0	1994	72267.118463634414	1
0	1994	72267.118463634414	0
0	1996	72624.181823391424	1
0	1996	72624.181823391424	0
0	2000	72810.63920801772	1
0	2000	72810.63920801772	0
0	2002	72833.361573534503	1
0	2002	72833.361573534503	0
0	2005	72880.417023335883	1
0	2005	72880.417023335883	0
0	2008	72909.465796559308	1
0	2008	72909.465796559308	0
0	2011	72998.453310132733	1
0	2011	72998.453310132733	0
0	2014	73094.578666516943	1
0	2014	73094.578666516943	0
0	2020	73267.497443301216	1
0	2020	73267.497443301216	0
0	2023	73507.984019118692	1
0	2023	73507.984019118692	0
0	2026	73600.10066923713	1
0	2026	73600.10066923713	0
0	2029	73778.979942578463	1
0	2029	73778.979942578463	0
0	2031	73795.39529992647	1
0	2031	73795.39529992647	0
0	2034	73942.998761589529	1
0	2034	73942.998761589529	0
0	2036	73954.567470288145	1
0	2036	73954.567470288145	0
0	2038	74100.165382904982	1
0	2038	74100.165382904982	0
0	2041	74255.534194693797	1
0	2041	74255.534194693797	0
0	2044	74365.405563609951	1
0	2044	74365.405563609951	0
0	2047	74441.494615023799	1
0	2047	74441.494615023799	0
0	2051	74451.962354810023	1
0	2051	74451.962354810023	0
0	2054	74564.21549797168	1
0	2054	74564.21549797168	0
0	2059	74707.231213988096	1
0	2059	74707.231213988096	0
0	2061	74709.930339450522	1
0	2061	74709.930339450522	0
0	2063	74730.36113042953	1
0	2063	74730.36113042953	0
0	2065	74801.980102444647	1
0	2065	74801.980102444647	0
0	2071	75205.01973132823	1
0	2071	75205.01973132823	0
0	2074	75220.471276367641	1
0	2074	75220.471276367641	0
0	2076	75247.22716511088	1
0	2076	75247.22716511088	0
0	2078	75262.846465231849	1
0	2078	75262.846465231849	0
0	2080	75320.442610383162	1
0	2080	75320.442610383162	0
0	2083	75408.442225648533	1
0	2083	75408.442225648533	0
0	2085	75472.903249647859	1
0	2085	75472.903249647859	0
0	2087	75477.262334812818	1
0	2087	75477.262334812818	1
0	2088	75525.715586433245	2
0	2088	75525.715586433245	2
0	2090	75528.368840019538	1
0	2093	75562.77417505402	0
0	2097	75734.398466934188	1
0	2097	75734.398466934188	0
0	2101	75782.484805213307	1
0	2101	75782.484805213307	0
0	2105	75938.536707906108	1
0	2105	75938.536707906108	0
0	2107	76061.651009020818	1
0	2107	76061.651009020818	0
0	2111	76220.000109082838	1
0	2111	76220.000109082838	0
0	2114	76647.936086694043	1
0	2114	76647.936086694043	0
0	2116	76655.468748433287	1
0	2116	76655.468748433287	0
0	2118	76661.100795312384	1
0	2118	76661.100795312384	0
0	2120	76664.564585551095	1
0	2120	76664.564585551095	0
0	2124	76810.132136756304	1
0	2124	76810.132136756304	0
0	2128	76961.572422936766	1
0	2128	76961.572422936766	0
0	2132	77330.546229406446	1
0	2132	77330.546229406446	0
0	2134	77345.399009218022	1
0	2134	77345.399009218022	0
0	2138	77442.716211499	1
0	2138	77442.716211499	0
0	2140	77485.67414073094	1
0	2140	77485.67414073094	0
0	2142	77613.226479743321	1
0	2142	77613.226479743321	0
0	2145	77741.883971677332	1
0	2145	77741.883971677332	0
0	2147	77790.501674104341	1
0	2147	77790.501674104341	0
0	2152	77949.024847317139	1
0	2152	77949.024847317139	0
0	2154	78001.98979684109	1
0	2154	78001.98979684109	0
0	2159	78228.983060334446	1
0	2159	78228.983060334446	0
0	2161	78249.223788250724	1
0	2161	78249.223788250724	0
0	2163	78260.98142950575	1
0	2163	78260.98142950575	0
0	2165	78267.751010705259	1
0	2165	78267.751010705259	0
0	2172	78517.271835201617	1
0	2172	78517.271835201617	0
0	2174	78568.59582452533	1
0	2174	78568.59582452533	0
0	2177	78602.301567672335	1
0	2177	78602.301567672335	0
0	2181	78863.743008074021	1
0	2181	78863.743008074021	0
0	2183	78870.230438817615	1
0	2183	78870.230438817615	0
0	2185	79034.710889768334	1
0	2185	79034.710889768334	0
0	2188	79147.939877829977	1
0	2188	79147.939877829977	0
0	2191	79398.858319248339	1
0	2191	79398.858319248339	0
0	2195	79556.050774610407	1
0	2195	79556.050774610407	0
0	2199	79646.119573359637	1
0	2199	79646.119573359637	0
0	2201	79647.72480962039	1
0	2201	79647.72480962039	0
0	2204	79861.351979121695	1
0	2204	79861.351979121695	0
0	2206	79870.060396160165	1
0	2206	79870.060396160165	0
0	2209	80034.967347614031	1
0	2209	80034.967347614031	0
0	2211	80053.048571064005	1
0	2211	80053.048571064005	0
0	2213	80127.647750382905	1
0	2213	80127.647750382905	0
0	2217	80218.478318634561	1
0	2217	80218.478318634561	0
0	2219	80227.220809108092	1
0	2219	80227.220809108092	0
0	2225	80445.559884519346	1
0	2225	80445.559884519346	0
0	2229	80750.6800608888	1
0	2229	80750.6800608888	0
0	2231	80820.663011244956	1
0	2231	80820.663011244956	0
0	2233	80831.937998565101	1
0	2233	80831.937998565101	0
0	2235	80857.140304104393	1
0	2235	80857.140304104393	0
0	2237	80857.718777716262	1
0	2237	80857.718777716262	0
0	2239	80878.608287824733	1
0	2239	80878.608287824733	1
0	2241	80897.870367721492	0
0	2243	80919.250558458746	1
0	2243	80919.250558458746	1
0	2244	80926.803103178682	2
0	2244	80926.803103178682	2
0	2245	80933.944888849235	3
0	2245	80933.944888849235	3
0	2247	80950.421934126654	2
0	2250	80977.554560018134	1
0	2253	81016.707582815675	0
0	2255	81070.581759473519	1
0	2255	81070.581759473519	1
0	2256	81103.283039156275	2
0	2256	81103.283039156275	2
0	2258	81110.399405624602	1
0	2261	81119.269519664835	0
0	2263	81120.924445623387	1
0	2263	81120.924445623387	1
0	2265	81177.212370296819	0
0	2267	81242.769748248306	1
0	2267	81242.769748248306	1
0	2269	81253.283462598937	0
0	2273	81319.041906196424	1
0	2273	81319.041906196424	0
0	2276	81343.126465699838	1
0	2276	81343.126465699838	0
0	2281	81421.375218921312	1
0	2281	81421.375218921312	0
0	2283	81436.79532827017	1
0	2283	81436.79532827017	0
0	2287	81611.494520799253	1
0	2287	81611.494520799253	0
0	2291	81727.680022257269	1
0	2291	81727.680022257269	0
0	2293	81739.249877799071	1
0	2293	81739.249877799071	0
0	2295	81762.567619813869	1
0	2295	81762.567619813869	0
0	2298	81765.656527785037	1
0	2298	81765.656527785037	0
0	2300	81793.072628641673	1
0	2300	81793.072628641673	0
0	2302	81799.254990566309	1
0	2302	81799.254990566309	0
0	2307	81882.009617583134	1
0	2307	81882.009617583134	0
0	2309	81952.35902197057	1
0	2309	81952.35902197057	0
0	2315	82198.492114722156	1
0	2315	82198.492114722156	0
0	2318	82447.102088907126	1
0	2318	82447.102088907126	0
0	2320	82528.172983041888	1
0	2320	82528.172983041888	0
0	2324	82986.557701623719	1
0	2324	82986.557701623719	0
0	2326	83108.560856376297	1
0	2326	83108.560856376297	0
0	2328	83151.659148932794	1
0	2328	83151.659148932794	0
0	2331	83200.016508002852	1
0	2331	83200.016508002852	0
0	2334	83322.835500151625	1
0	2334	83322.835500151625	0
0	2338	83539.789018597074	1
0	2338	83539.789018597074	0
0	2341	83650.635551209965	1
0	2341	83650.635551209965	0
0	2344	83759.222034857223	1
0	2344	83759.222034857223	0
0	2346	83859.9719949097	1
0	2346	83859.9719949097	0
0	2349	83928.517269187719	1
0	2349	83928.517269187719	0
0	2352	83967.092683070278	1
0	2352	83967.092683070278	0
0	2356	84098.642512505585	1
0	2356	84098.642512505585	0
0	2358	84103.429928577243	1
0	2358	84103.429928577243	0
0	2361	84238.986125055713	1
0	2361	84238.986125055713	0
0	2363	84284.876807216497	1
0	2363	84284.876807216497	0
0	2368	84648.862358468321	1
0	2368	84648.862358468321	0
0	2371	84785.562383502024	1
0	2371	84785.562383502024	0
0	2375	85005.080261648465	1
0	2375	85005.080261648465	0
0	2377	85096.822057169928	1
0	2377	85096.822057169928	0
0	2381	85244.051022936087	1
0	2381	85244.051022936087	0
0	2383	85317.995974441293	1
0	2383	85317.995974441293	0
0	2385	85353.064581590862	1
0	2385	85353.064581590862	0
0	2388	85405.175577075175	1
0	2388	85405.175577075175	0
0	2391	85440.808484056053	1
0	2391	85440.808484056053	0
0	2395	85641.647982450931	1
0	2395	85641.647982450931	0
0	2399	85704.81873026308	1
0	2399	85704.81873026308	0
0	2402	85920.072327152183	1
0	2402	85920.072327152183	0
0	2404	86080.567143145554	1
0	2404	86080.567143145554	0
0	2406	86216.967807937296	1
0	2406	86216.967807937296	0
0	2411	86433.017612802452	1
0	2411	86433.017612802452	0
0	2413	86858.80244155711	1
0	2413	86858.80244155711	0
0	2416	86914.720538729385	1
0	2416	86914.720538729385	0
0	2419	87128.364201448585	1
0	2419	87128.364201448585	0
0	2422	87370.671000496813	1
0	2422	87370.671000496813	0
0	2425	87404.346308449898	1
0	2425	87404.346308449898	0
0	2428	87410.715861662836	1
0	2428	87410.715861662836	0
0	2430	87444.474944270719	1
0	2430	87444.474944270719	0
0	2433	87466.032020533861	1
0	2433	87466.032020533861	0
0	2436	87584.826831131852	1
0	2436	87584.826831131852	0
0	2438	87587.076124343103	1
0	2438	87587.076124343103	0
0	2444	87838.247564920467	1
0	2444	87838.247564920467	0
0	2446	88019.08073455805	1
0	2446	88019.08073455805	0
0	2449	88176.475205905599	1
0	2449	88176.475205905599	0
0	2451	88211.892260499398	1
0	2451	88211.892260499398	0
0	2454	88245.39385532954	1
0	2454	88245.39385532954	0
0	2458	88318.511590908296	1
0	2458	88318.511590908296	0
0	2460	88340.660544091397	1
0	2460	88340.660544091397	0
0	2462	88380.181706562937	1
0	2462	88380.181706562937	0
0	2464	88398.833605317634	1
0	2464	88398.833605317634	0
0	2469	88628.187441090742	1
0	2469	88628.187441090742	0
0	2471	88718.448250719845	1
0	2471	88718.448250719845	0
0	2476	89086.390018986885	1
0	2476	89086.390018986885	0
0	2480	89293.114545351811	1
0	2480	89293.114545351811	0
0	2482	89326.70263581613	1
0	2482	89326.70263581613	0
0	2486	89593.476765640344	1
0	2486	89593.476765640344	0
0	2489	89770.557358041466	1
0	2489	89770.557358041466	0
0	2491	89835.063849935156	1
0	2491	89835.063849935156	0
0	2493	89901.343565582288	1
0	2493	89901.343565582288	0
0	2496	90015.235301903398	1
0	2496	90015.235301903398	0
0	2500	90076.679484468725	1
0	2500	90076.679484468725	0
0	2503	90190.952952862935	1
0	2503	90190.952952862935	0
0	2506	90255.721491043618	1
0	2506	90255.721491043618	0
0	2509	90382.672136201749	1
0	2509	90382.672136201749	0
0	2511	90388.035789478858	1
0	2511	90388.035789478858	0
0	2513	90445.901949841136	1
0	2513	90445.901949841136	0
0	2516	90481.407782674844	1
0	2516	90481.407782674844	0
0	2518	90500.625442502746	1
0	2518	90500.625442502746	0
0	2521	90637.679133933764	1
0	2521	90637.679133933764	0
0	2524	90658.280862303656	1
0	2524	90658.280862303656	0
0	2531	90864.978571711974	1
0	2531	90864.978571711974	0
0	2533	90882.269663973922	1
0	2533	90882.269663973922	0
0	2537	91309.293092712446	1
0	2537	91309.293092712446	0
0	2539	91325.233584824991	1
0	2539	91325.233584824991	0
0	2542	91479.783411220374	1
0	2542	91479.783411220374	0
0	2545	91565.374295309056	1
0	2545	91565.374295309056	0
0	2548	91737.406534285694	1
0	2548	91737.406534285694	0
0	2551	92044.036943559298	1
0	2551	92044.036943559298	0
0	2554	92210.020391702761	1
0	2554	92210.020391702761	0
0	2556	92210.913218625338	1
0	2556	92210.913218625338	0
0	2559	92298.693580973562	1
0	2559	92298.693580973562	0
0	2562	92361.183670730765	1
0	2562	92361.183670730765	0
0	2564	92423.858930035849	1
0	2564	92423.858930035849	0
0	2568	92681.442754230026	1
0	2568	92681.442754230026	0
0	2573	92915.287487993016	1
0	2573	92915.287487993016	0
0	2576	93244.996677860047	1
0	2576	93244.996677860047	0
0	2579	93334.25378107186	1
0	2579	93334.25378107186	0
0	2581	93464.178686576348	1
0	2581	93464.178686576348	0
0	2583	93502.892071330928	1
0	2583	93502.892071330928	0
0	2585	93508.554794158118	1
0	2585	93508.554794158118	0
0	2588	93688.585958807501	1
0	2588	93688.585958807501	0
0	2591	93740.202168756224	1
0	2591	93740.202168756224	0
0	2594	93994.905057072891	1
0	2594	93994.905057072891	0
0	2597	94024.500899265007	1
0	2597	94024.500899265007	0
0	2599	94047.926726224489	1
0	2599	94047.926726224489	0
0	2605	94571.944428197112	1
0	2605	94571.944428197112	0
0	2607	94638.376645896994	1
0	2607	94638.376645896994	0
0	2610	94664.368547863333	1
0	2610	94664.368547863333	0
0	2612	94688.098212538453	1
0	2612	94688.098212538453	0
0	2616	94787.291567994395	1
0	2616	94787.291567994395	0
0	2618	94794.034847124358	1
0	2618	94794.034847124358	0
0	2621	94819.538687428904	1
0	2621	94819.538687428904	0
0	2624	94832.436833959571	1
0	2624	94832.436833959571	0
0	2626	94833.79225768234	1
0	2626	94833.79225768234	0
0	2628	94865.112004585974	1
0	2628	94865.112004585974	1
0	2630	94867.496338085831	0
0	2633	94967.372697758209	1
0	2633	94967.372697758209	0
0	2636	95096.656684782814	1
0	2636	95096.656684782814	0
0	2640	95346.281735591985	1
0	2640	95346.281735591985	0
0	2644	95517.142899102926	1
0	2644	95517.142899102926	0
0	2647	95631.049541322017	1
0	2647	95631.049541322017	0
0	2650	95661.687558039275	1
0	2650	95661.687558039275	0
0	2653	95735.806965740743	1
0	2653	95735.806965740743	0
0	2658	95921.142437570003	1
0	2658	95921.142437570003	0
0	2660	96081.863898276891	1
0	2660	96081.863898276891	0
0	2664	96449.300761963596	1
0	2664	96449.300761963596	0
0	2666	96605.929916762196	1
0	2666	96605.929916762196	0
0	2669	96649.797261635842	1
0	2669	96649.797261635842	0
0	2671	96664.737668423624	1
0	2671	96664.737668423624	0
0	2674	96681.593776106267	1
0	2674	96681.593776106267	0
0	2678	96790.453566065968	1
0	2678	96790.453566065968	0
0	2680	96803.151488596086	1
0	2680	96803.151488596086	0
0	2682	96821.283048549414	1
0	2682	96821.283048549414	0
0	2685	97104.889290959219	1
0	2685	97104.889290959219	0
0	2691	97451.187757317902	1
0	2691	97451.187757317902	0
0	2693	97490.705083812548	1
0	2693	97490.705083812548	0
0	2695	97506.504118793066	1
0	2695	97506.504118793066	0
0	2697	97524.026276918629	1
0	2697	97524.026276918629	0
0	2702	97631.581642065693	1
0	2702	97631.581642065693	0
0	2705	97835.752095445135	1
0	2705	97835.752095445135	0
0	2707	97978.243385582734	1
0	2707	97978.243385582734	0
0	2709	98013.607680748337	1
0	2709	98013.607680748337	0
0	2711	98069.306838370652	1
0	2711	98069.306838370652	0
0	2715	98102.324982556308	1
0	2715	98102.324982556308	0
0	2718	98138.595401021561	1
0	2718	98138.595401021561	0
0	2722	98251.935477619335	1
0	2722	98251.935477619335	0
0	2725	98288.258538033222	1
0	2725	98288.258538033222	0
0	2727	98331.66828209934	1
0	2727	98331.66828209934	0
0	2730	98372.454930716555	1
0	2730	98372.454930716555	0
0	2733	98579.105764492158	1
0	2733	98579.105764492158	0
0	2735	98605.415573972946	1
0	2735	98605.415573972946	0
0	2740	98813.111654509106	1
0	2740	98813.111654509106	0
0	2742	98885.790563463144	1
0	2742	98885.790563463144	0
0	2744	98957.318439939495	1
0	2744	98957.318439939495	0
0	2746	98967.082516717491	1
0	2746	98967.082516717491	1
0	2748	98980.406685225244	0
0	2751	99028.476329037668	1
0	2751	99028.476329037668	0
0	2753	99035.140817025179	1
0	2753	99035.140817025179	1
0	2754	99151.266830350545	2
0	2754	99151.266830350545	2
0	2755	99217.16405691156	3
0	2755	99217.16405691156	3
0	2756	99278.862911078256	4
0	2756	99278.862911078256	4
0	2758	99288.554648333786	3
0	2761	99314.249738214888	2
0	2764	99350.231597931187	1
0	2767	99385.381026872122	0
0	2769	99447.461734671653	1
0	2769	99447.461734671653	1
0	2770	99466.495753248427	2
0	2770	99466.495753248427	2
0	2772	99470.585834333432	1
0	2775	99480.575216719655	0
0	2777	99495.998411864852	1
0	2777	99495.998411864852	1
0	2779	99579.225969555369	0
0	2784	99850.918715034507	1
0	2784	99850.918715034507	0
0	2787	99954.081697630882	1
0	2787	99954.081697630882	0
0	2790	100031.594780034144	1
0	2790	100031.594780034144	0
0	2792	100107.383149154647	1
0	2792	100107.383149154647	0
0	2798	100476.931891672553	1
0	2798	100476.931891672553	0
0	2800	100490.550209922596	1
0	2800	100490.550209922596	0
0	2803	100603.292647288724	1
0	2803	100603.292647288724	0
0	2805	100670.834279014824	1
0	2805	100670.834279014824	0
0	2809	100866.426557394311	1
0	2809	100866.426557394311	0
0	2811	100881.911969290055	1
0	2811	100881.911969290055	0
0	2813	100919.627310394636	1
0	2813	100919.627310394636	0
0	2818	101048.920556944564	1
0	2818	101048.920556944564	0
0	2822	101475.957202563102	1
0	2822	101475.957202563102	0
0	2824	101482.792144380169	1
0	2824	101482.792144380169	0
0	2827	101541.973097885503	1
0	2827	101541.973097885503	0
0	2829	101572.982376547943	1
0	2829	101572.982376547943	0
0	2832	101682.919580380656	1
0	2832	101682.919580380656	0
0	2835	101726.728314716079	1
0	2835	101726.728314716079	0
0	2840	101926.578007541437	1
0	2840	101926.578007541437	0
0	2842	102007.274271901619	1
0	2842	102007.274271901619	0
0	2844	102036.296098376341	1
0	2844	102036.296098376341	0
0	2846	102053.982571117218	1
0	2846	102053.982571117218	0
0	2848	102061.432897780826	1
0	2848	102061.432897780826	0
0	2850	102093.890354157488	1
0	2850	102093.890354157488	1
0	2851	102137.296134540655	2
0	2851	102137.296134540655	2
0	2852	102157.281993005709	3
0	2852	102157.281993005709	3
0	2854	102160.528646552972	2
0	2856	102164.29938417928	3
0	2856	102164.29938417928	3
0	2857	102206.770729582306	4
0	2857	102206.770729582306	4
0	2859	102221.516108290486	3
0	2862	102228.92666493567	2
0	2865	102303.326383047129	1
0	2868	102327.859218151845	0
0	2874	102532.712991704338	1
0	2874	102532.712991704338	0
0	2876	102564.001454886825	1
0	2876	102564.001454886825	0
0	2879	102583.770959553723	1
0	2879	102583.770959553723	0
0	2882	102682.984113476865	1
0	2882	102682.984113476865	0
0	2887	102961.698294366047	1
0	2887	102961.698294366047	0
0	2889	102979.276320869745	1
0	2889	102979.276320869745	0
0	2892	103009.683491005114	1
0	2892	103009.683491005114	0
0	2895	103065.869548691255	1
0	2895	103065.869548691255	0
0	2897	103079.106927110455	1
0	2897	103079.106927110455	0
0	2900	103136.194415823139	1
0	2900	103136.194415823139	0
0	2904	103249.369446443688	1
0	2904	103249.369446443688	0
0	2907	103334.063974004232	1
0	2907	103334.063974004232	0
0	2909	103383.371160224949	1
0	2909	103383.371160224949	0
0	2912	103409.615557799422	1
0	2912	103409.615557799422	0
0	2914	103433.846899384298	1
0	2914	103433.846899384298	0
0	2919	103575.881547055468	1
0	2919	103575.881547055468	0
0	2922	103622.753942059918	1
0	2922	103622.753942059918	0
0	2926	103861.941039290919	1
0	2926	103861.941039290919	0
0	2929	104064.334339376429	1
0	2929	104064.334339376429	0
0	2931	104223.844426693797	1
0	2931	104223.844426693797	0
0	2934	104312.087694883841	1
0	2934	104312.087694883841	0
0	2937	104363.400889478258	1
0	2937	104363.400889478258	0
0	2940	104441.976237128534	1
0	2940	104441.976237128534	0
0	2944	104877.83213187004	1
0	2944	104877.83213187004	0
0	2946	104894.41324779159	1
0	2946	104894.41324779159	0
0	2950	104958.386967049471	1
0	2950	104958.386967049471	0
0	2953	105171.474889151419	1
0	2953	105171.474889151419	0
0	2956	105195.833423522531	1
0	2956	105195.833423522531	0
0	2958	105206.07742049639	1
0	2958	105206.07742049639	0
0	2962	105379.907298109343	1
0	2962	105379.907298109343	0
0	2964	105388.000936920189	1
0	2964	105388.000936920189	0
0	2966	105453.373598361934	1
0	2966	105453.373598361934	0
0	2971	105679.505598272238	1
0	2971	105679.505598272238	0
0	2973	105836.338713669651	1
0	2973	105836.338713669651	0
0	2975	105836.982895180864	1
0	2975	105836.982895180864	0
0	2979	105955.7611499481	1
0	2979	105955.7611499481	0
0	2982	106030.272037841763	1
0	2982	106030.272037841763	0
0	2984	106079.21139116647	1
0	2984	106079.21139116647	0
0	2986	106220.892874154954	1
0	2986	106220.892874154954	0
0	2992	106337.963850233085	1
0	2992	106337.963850233085	0
0	2995	106464.359017867904	1
0	2995	106464.359017867904	0
0	2997	106568.382529405985	1
0	2997	106568.382529405985	0
0	2999	106697.657168807012	1
0	2999	106697.657168807012	0
0	3001	106705.78549304912	1
0	3001	106705.78549304912	0
0	3003	106811.989035750869	1
0	3003	106811.989035750869	0
0	3006	106831.502822984892	1
0	3006	106831.502822984892	0
0	3009	106886.598827990196	1
0	3009	106886.598827990196	0
0	3012	106961.835486384446	1
0	3012	106961.835486384446	0
0	3019	107320.180956206702	1
0	3019	107320.180956206702	0
0	3022	107528.154445860507	1
0	3022	107528.154445860507	0
0	3025	107579.127477496104	1
0	3025	107579.127477496104	0
0	3027	107610.10765639076	1
0	3027	107610.10765639076	0
0	3030	107629.56820593203	1
0	3030	107629.56820593203	0
0	3033	107695.132551798242	1
0	3033	107695.132551798242	0
0	3037	107862.173707669009	1
0	3037	107862.173707669009	0
0	3039	107887.588491554554	1
0	3039	107887.588491554554	0
0	3041	107936.61578956635	1
0	3041	107936.61578956635	0
0	3043	108038.279265458111	1
0	3043	108038.279265458111	0
0	3046	108095.151953535752	1
0	3046	108095.151953535752	0
0	3048	108109.669021619988	1
0	3048	108109.669021619988	0
0	3051	108302.003280802871	1
0	3051	108302.003280802871	0
0	3057	108537.294982980458	1
0	3057	108537.294982980458	0
0	3061	109063.492764846088	1
0	3061	109063.492764846088	0
0	3063	109109.492081742606	1
0	3063	109109.492081742606	0
0	3067	109199.406343050692	1
0	3067	109199.406343050692	0
0	3069	109199.840763769731	1
0	3069	109199.840763769731	0
0	3072	109385.219654049955	1
0	3072	109385.219654049955	0
0	3074	109390.388851728366	1
0	3074	109390.388851728366	0
0	3076	109396.259367101557	1
0	3076	109396.259367101557	0
0	3079	109416.488677500398	1
0	3079	109416.488677500398	0
0	3082	109462.321401449225	1
0	3082	109462.321401449225	0
0	3088	109601.047331888489	1
0	3088	109601.047331888489	0
0	3090	109667.257729823647	1
0	3090	109667.257729823647	0
0	3093	109770.481070893156	1
0	3093	109770.481070893156	0
0	3097	109863.52682781665	1
0	3097	109863.52682781665	0
0	3099	110073.599671569742	1
0	3099	110073.599671569742	0
0	3101	110133.007957008035	1
0	3101	110133.007957008035	0
0	3104	110191.073067111356	1
0	3104	110191.073067111356	0
0	3108	110279.428675967802	1
0	3108	110279.428675967802	0
0	3110	110524.33415331201	1
0	3110	110524.33415331201	0
0	3112	110539.181583643327	1
0	3112	110539.181583643327	0
0	3117	110635.341974714535	1
0	3117	110635.341974714535	0
0	3119	110680.697208378726	1
0	3119	110680.697208378726	0
0	3122	110695.88182951304	1
0	3122	110695.88182951304	0
0	3126	110832.923227904613	1
0	3126	110832.923227904613	0
0	3128	110841.860983723337	1
0	3128	110841.860983723337	0
0	3131	110880.396788787413	1
0	3131	110880.396788787413	0
0	3136	111010.932701639583	1
0	3136	111010.932701639583	0
0	3138	111218.906364132991	1
0	3138	111218.906364132991	0
0	3140	111249.340324720596	1
0	3140	111249.340324720596	0
0	3143	111374.464585426667	1
0	3143	111374.464585426667	0
0	3147	111509.264256029354	1
0	3147	111509.264256029354	0
0	3150	111716.032275154355	1
0	3150	111716.032275154355	0
0	3152	111810.359296923348	1
0	3152	111810.359296923348	0
0	3157	111923.821691571025	1
0	3157	111923.821691571025	0
0	3159	112058.872664016876	1
0	3159	112058.872664016876	0
0	3161	112072.75942882805	1
0	3161	112072.75942882805	0
0	3166	112255.93481419699	1
0	3166	112255.93481419699	0
0	3168	112262.315412135315	1
0	3168	112262.315412135315	0
0	3170	112302.350214501581	1
0	3170	112302.350214501581	0
0	3173	112370.305856505939	1
0	3173	112370.305856505939	0
0	3176	112380.473207882882	1
0	3176	112380.473207882882	0
0	3179	112542.905798336975	1
0	3179	112542.905798336975	0
0	3184	113199.572449412021	1
0	3184	113199.572449412021	0
0	3186	113261.440204899648	1
0	3186	113261.440204899648	0
0	3188	113286.569237208126	1
0	3188	113286.569237208126	0
0	3190	113296.770355323166	1
0	3190	113296.770355323166	0
0	3194	113455.31875252704	1
0	3194	113455.31875252704	0
0	3199	113614.44533228	1
0	3199	113614.44533228	0
0	3201	113619.048927742154	1
0	3201	113619.048927742154	0
0	3204	113691.859002394929	1
0	3204	113691.859002394929	0
0	3207	113878.701452438406	1
0	3207	113878.701452438406	0
0	3210	113992.691844027773	1
0	3210	113992.691844027773	0
0	3213	114103.715844905241	1
0	3213	114103.715844905241	0
0	3216	114302.899552246652	1
0	3216	114302.899552246652	0
0	3218	114305.359035023811	1
0	3218	114305.359035023811	0
0	3221	114403.176664832387	1
0	3221	114403.176664832387	0
0	3225	114522.130808156365	1
0	3225	114522.130808156365	0
0	3227	114536.37557163609	1
0	3227	114536.37557163609	0
0	3231	114768.256568700783	1
0	3231	114768.256568700783	0
0	3234	114975.242131973324	1
0	3234	114975.242131973324	0
0	3237	115063.444026091471	1
0	3237	115063.444026091471	0
0	3239	115233.522046282079	1
0	3239	115233.522046282079	0
0	3244	115479.97344961627	1
0	3244	115479.97344961627	0
0	3246	115511.864116039285	1
0	3246	115511.864116039285	0
0	3249	115676.880600960416	1
0	3249	115676.880600960416	0
0	3252	115893.820240731224	1
0	3252	115893.820240731224	0
0	3256	116041.497459907511	1
0	3256	116041.497459907511	0
0	3259	116107.161968633566	1
0	3259	116107.161968633566	0
0	3262	116253.190966993639	1
0	3262	116253.190966993639	0
0	3265	116264.30147190903	1
0	3265	116264.30147190903	0
0	3267	116269.764570144651	1
0	3267	116269.764570144651	0
0	3269	116500.476721608065	1
0	3269	116500.476721608065	0
0	3273	116783.952719642598	1
0	3273	116783.952719642598	0
0	3276	116938.410078524213	1
0	3276	116938.410078524213	0
0	3278	116962.696566417233	1
0	3278	116962.696566417233	0
0	3282	117077.753422351732	1
0	3282	117077.753422351732	0
0	3285	117375.304296443363	1
0	3285	117375.304296443363	0
0	3289	117478.480928486194	1
0	3289	117478.480928486194	0
0	3291	117490.74949280307	1
0	3291	117490.74949280307	0
0	3294	117521.650987942041	1
0	3294	117521.650987942041	0
0	3296	117654.780429798051	1
0	3296	117654.780429798051	0
0	3300	117819.790342898673	1
0	3300	117819.790342898673	0
0	3302	117932.7968057224	1
0	3302	117932.7968057224	0
0	3305	118041.505517836933	1
0	3305	118041.505517836933	0
0	3310	118446.516874247274	1
0	3310	118446.516874247274	0
0	3312	118659.480008238322	1
0	3312	118659.480008238322	0
0	3314	118741.905193916333	1
0	3314	118741.905193916333	0
0	3316	118778.990729758798	1
0	3316	118778.990729758798	0
0	3318	118845.768863514324	1
0	3318	118845.768863514324	0
0	3320	118863.444929970782	1
0	3320	118863.444929970782	1
0	3322	118923.687690051197	0
0	3325	118987.69277189943	1
0	3325	118987.69277189943	0
0	3332	119196.670464194603	1
0	3332	119196.670464194603	0
0	3334	119286.684372132371	1
0	3334	119286.684372132371	0
0	3337	119360.358426999921	1
0	3337	119360.358426999921	0
0	3340	119508.115484764339	1
0	3340	119508.115484764339	0
0	3342	119546.769047633639	1
0	3342	119546.769047633639	0
0	3345	119701.916659586284	1
0	3345	119701.916659586284	0
0	3348	119708.991274821072	1
0	3348	119708.991274821072	0
0	3351	119771.258240117636	1
0	3351	119771.258240117636	0
0	3353	119836.643017913143	1
0	3353	119836.643017913143	0
0	3357	119929.142065759525	1
0	3357	119929.142065759525	0
0	3359	119945.701383843331	1
0	3359	119945.701383843331	0
0	3362	120062.341891238145	1
0	3362	120062.341891238145	0
0	3364	120075.82732273012	1
0	3364	120075.82732273012	0
0	3366	120115.726353007754	1
0	3366	120115.726353007754	1
0	3368	120126.530204100011	0
0	3372	120182.055248600559	1
0	3372	120182.055248600559	0
0	3377	120566.995956081906	1
0	3377	120566.995956081906	0
0	3379	120600.358231636963	1
0	3379	120600.358231636963	0
0	3384	120796.641989717236	1
0	3384	120796.641989717236	0
0	3386	120829.544441274856	1
0	3386	120829.544441274856	0
0	3390	121150.172340520686	1
0	3390	121150.172340520686	0
0	3393	121152.981768237449	1
0	3393	121152.981768237449	0
0	3395	121196.242552132511	1
0	3395	121196.242552132511	0
0	3399	121299.423461142994	1
0	3399	121299.423461142994	0
0	3401	121341.296111970171	1
0	3401	121341.296111970171	0
0	3403	121373.451005086906	1
0	3403	121373.451005086906	0
0	3407	121699.771634531192	1
0	3407	121699.771634531192	0
0	3411	121849.157443655361	1
0	3411	121849.157443655361	0
0	3414	121980.400235025521	1
0	3414	121980.400235025521	0
0	3417	122118.293688180744	1
0	3417	122118.293688180744	0
0	3420	122303.198984045571	1
0	3420	122303.198984045571	0
0	3422	122329.585437360879	1
0	3422	122329.585437360879	0
0	3424	122336.604681043532	1
0	3424	122336.604681043532	0
0	3427	122374.765035867389	1
0	3427	122374.765035867389	0
0	3431	122534.859646149857	1
0	3431	122534.859646149857	0
0	3434	122588.396613665783	1
0	3434	122588.396613665783	0
0	3437	122614.215235854839	1
0	3437	122614.215235854839	0
0	3440	122757.771501059729	1
0	3440	122757.771501059729	0
0	3443	123024.415015357465	1
0	3443	123024.415015357465	0
0	3447	123065.170568847743	1
0	3447	123065.170568847743	0
0	3449	123287.927224174163	1
0	3449	123287.927224174163	0
0	3451	123322.572713042105	1
0	3451	123322.572713042105	0
0	3454	123332.586275820048	1
0	3454	123332.586275820048	0
0	3456	123377.125220593485	1
0	3456	123377.125220593485	0
0	3461	123599.714634007637	1
0	3461	123599.714634007637	0
0	3464	123658.982185084134	1
0	3464	123658.982185084134	0
0	3468	124028.785686792614	1
0	3468	124028.785686792614	0
0	3470	124094.627097001468	1
0	3470	124094.627097001468	0
0	3473	124170.465087791034	1
0	3473	124170.465087791034	0
0	3477	124302.336555156056	1
0	3477	124302.336555156056	0
0	3479	124310.507289436447	1
0	3479	124310.507289436447	0
0	3481	124341.130565737306	1
0	3481	124341.130565737306	0
0	3484	124426.542186121514	1
0	3484	124426.542186121514	0
0	3488	124588.40023674695	1
0	3488	124588.40023674695	0
0	3492	124730.391152135664	1
0	3492	124730.391152135664	0
0	3495	124969.757084861967	1
0	3495	124969.757084861967	0
0	3498	125062.798186042277	1
0	3498	125062.798186042277	0
0	3500	125092.725996889709	1
0	3500	125092.725996889709	0
0	3502	125128.837341106145	1
0	3502	125128.837341106145	0
0	3505	125204.247872224481	1
0	3505	125204.247872224481	0
0	3509	125321.525119009034	1
0	3509	125321.525119009034	0
0	3511	125340.323258734719	1
0	3511	125340.323258734719	0
0	3513	125431.007043768093	1
0	3513	125431.007043768093	0
0	3515	125462.352334355132	1
0	3515	125462.352334355132	0
0	3522	125692.737347403246	1
0	3522	125692.737347403246	0
0	3524	125739.946725808151	1
0	3524	125739.946725808151	0
0	3526	125796.407907018016	1
0	3526	125796.407907018016	0
0	3531	126207.428406597591	1
0	3531	126207.428406597591	0
0	3534	126323.334279694041	1
0	3534	126323.334279694041	0
0	3537	126362.211891385845	1
0	3537	126362.211891385845	0
0	3540	126511.040585501319	1
0	3540	126511.040585501319	0
0	3542	126632.029336395779	1
0	3542	126632.029336395779	0
0	3546	126830.225790576992	1
0	3546	126830.225790576992	0
0	3548	126837.676754666983	1
0	3548	126837.676754666983	0
0	3550	126883.114065122757	1
0	3550	126883.114065122757	0
0	3554	127026.851344505417	1
0	3554	127026.851344505417	0
0	3557	127134.623074772014	1
0	3557	127134.623074772014	0
0	3561	127186.205697678804	1
0	3561	127186.205697678804	0
0	3564	127257.308662173843	1
0	3564	127257.308662173843	0
0	3566	127263.769304133767	1
0	3566	127263.769304133767	0
0	3569	127327.873212360145	1
0	3569	127327.873212360145	0
0	3571	127545.962377479779	1
0	3571	127545.962377479779	0
0	3573	127558.201978162132	1
0	3573	127558.201978162132	0
0	3578	127841.196672991077	1
0	3578	127841.196672991077	0
0	3580	127874.594070428105	1
0	3580	127874.594070428105	0
0	3582	127941.265054607532	1
0	3582	127941.265054607532	0
0	3588	128174.211604952029	1
0	3588	128174.211604952029	0
0	3590	128225.589502054183	1
0	3590	128225.589502054183	0
0	3592	128341.772356765415	1
0	3592	128341.772356765415	0
0	3594	128428.497071196479	1
0	3594	128428.497071196479	0
0	3598	128516.676690604433	1
0	3598	128516.676690604433	0
0	3602	128612.023231431394	1
0	3602	128612.023231431394	0
0	3604	128664.11988359558	1
0	3604	128664.11988359558	0
0	3606	128669.490699032331	1
0	3606	128669.490699032331	0
0	3610	128745.584033113683	1
0	3610	128745.584033113683	0
0	3614	128834.469713445159	1
0	3614	128834.469713445159	0
0	3616	129035.95997093587	1
0	3616	129035.95997093587	0
0	3619	129087.639755270089	1
0	3619	129087.639755270089	0
0	3621	129170.000264417997	1
0	3621	129170.000264417997	0
0	3625	129261.877188347512	1
0	3625	129261.877188347512	0
0	3629	129420.446585533839	1
0	3629	129420.446585533839	0
0	3631	129435.819004234943	1
0	3631	129435.819004234943	0
0	3636	129530.501903354529	1
0	3636	129530.501903354529	0
0	3638	129537.149644156294	1
0	3638	129537.149644156294	0
0	3640	129609.964815250463	1
0	3640	129609.964815250463	0
0	3642	129667.643964664665	1
0	3642	129667.643964664665	0
0	3645	129703.027185325985	1
0	3645	129703.027185325985	0
0	3648	129862.461783152773	1
0	3648	129862.461783152773	0
0	3650	129868.945868499822	1
0	3650	129868.945868499822	0
0	3652	129901.835514558835	1
0	3652	129901.835514558835	1
0	3654	129954.501053848194	0
0	3659	130173.520079497133	1
0	3659	130173.520079497133	0
0	3662	130288.458463829398	1
0	3662	130288.458463829398	0
0	3665	130484.516328555738	1
0	3665	130484.516328555738	0
0	3670	130874.340724549815	1
0	3670	130874.340724549815	0
0	3672	130893.089406254691	1
0	3672	130893.089406254691	0
0	3675	130991.674129322449	1
0	3675	130991.674129322449	0
0	3677	130998.240470792993	1
0	3677	130998.240470792993	0
0	3680	131096.390975275407	1
0	3680	131096.390975275407	0
0	3683	131161.452502338776	1
0	3683	131161.452502338776	0
0	3686	131222.561624925849	1
0	3686	131222.561624925849	0
0	3688	131281.649981133516	1
0	3688	131281.649981133516	0
0	3693	131607.207411616606	1
0	3693	131607.207411616606	0
0	3697	131823.446932595473	1
0	3697	131823.446932595473	0
0	3699	131896.28176299376	1
0	3699	131896.28176299376	0
0	3701	131931.58998423566	1
0	3701	131931.58998423566	0
0	3704	132041.900778083725	1
0	3704	132041.900778083725	0
0	3706	132098.780729249507	1
0	3706	132098.780729249507	0
0	3708	132143.712837882102	1
0	3708	132143.712837882102	0
0	3710	132170.900788995716	1
0	3710	132170.900788995716	1
0	3712	132210.656076231118	0
0	3715	132297.53448008935	1
0	3715	132297.53448008935	0
0	3719	132408.461529051408	1
0	3719	132408.461529051408	0
0	3724	132654.498714008077	1
0	3724	132654.498714008077	0
0	3726	132686.584263219107	1
0	3726	132686.584263219107	0
0	3730	133052.374070917799	1
0	3730	133052.374070917799	0
0	3732	133166.380101945295	1
0	3732	133166.380101945295	0
0	3734	133175.091260663611	1
0	3734	133175.091260663611	0
0	3737	133210.650254750979	1
0	3737	133210.650254750979	0
0	3739	133221.680454477175	1
0	3739	133221.680454477175	0
0	3742	133250.520006972748	1
0	3742	133250.520006972748	0
0	3744	133277.35097237887	1
0	3744	133277.35097237887	1
0	3745	133382.638458256777	2
0	3745	133382.638458256777	2
0	3747	133388.808727109875	1
0	3749	133400.529457237129	2
0	3749	133400.529457237129	2
0	3751	133405.763963773659	1
0	3754	133440.143446619982	0
0	3757	133567.808825152786	1
0	3757	133567.808825152786	0
0	3759	133607.979841081758	1
0	3759	133607.979841081758	1
0	3760	133618.2256600335	2
0	3760	133618.2256600335	2
0	3761	133631.962108193664	3
0	3761	133631.962108193664	3
0	3763	133728.152975384395	2
0	3766	133762.244026159972	1
0	3768	133777.950108063243	2
0	3768	133777.950108063243	2
0	3770	133893.049981539988	1
0	3773	133930.24538605006	0
0	3778	134076.514906941541	1
0	3778	134076.514906941541	0
0	3780	134115.422003331438	1
0	3780	134115.422003331438	0
0	3784	134188.749120289578	1
0	3784	134188.749120289578	0
0	3786	134194.498430882143	1
0	3786	134194.498430882143	0
0	3788	134233.022838300424	1
0	3788	134233.022838300424	0
0	3790	134272.661237683164	1
0	3790	134272.661237683164	1
0	3791	134316.170285038812	2
0	3791	134316.170285038812	2
0	3793	134318.900599481581	1
0	3796	134340.066896397881	0
0	3801	134486.073085235332	1
0	3801	134486.073085235332	0
0	3806	134581.157862590938	1
0	3806	134581.157862590938	0
0	3808	134850.749393312261	1
0	3808	134850.749393312261	0
0	3810	135058.2731353575	1
0	3810	135058.2731353575	0
0	3813	135141.730894405219	1
0	3813	135141.730894405219	0
0	3817	135338.915796848684	1
0	3817	135338.915796848684	0
0	3819	135396.185772927463	1
0	3819	135396.185772927463	0
0	3822	135499.666708860381	1
0	3822	135499.666708860381	0
0	3827	135706.831509001889	1
0	3827	135706.831509001889	0
0	3830	135952.668742736512	1
0	3830	135952.668742736512	0
0	3833	136144.323696570193	1
0	3833	136144.323696570193	0
0	3835	136190.629137748087	1
0	3835	136190.629137748087	0
0	3838	136207.706828471581	1
0	3838	136207.706828471581	0
0	3841	136258.223914834689	1
0	3841	136258.223914834689	0
0	3843	136264.174021847119	1
0	3843	136264.174021847119	0
0	3845	136401.592724630812	1
0	3845	136401.592724630812	0
0	3847	136429.299060525433	1
0	3847	136429.299060525433	0
0	3850	136609.25771307215	1
0	3850	136609.25771307215	0
0	3852	136617.018589959092	1
0	3852	136617.018589959092	1
0	3854	136631.110875098362	0
0	3857	136644.89497513781	1
0	3857	136644.89497513781	0
0	3859	136706.781626663371	1
0	3859	136706.781626663371	1
0	3860	136722.394138770568	2
0	3860	136722.394138770568	2
0	3861	136760.51588930672	3
0	3861	136760.51588930672	3
0	3863	136816.338668034739	2
0	3865	136835.086633447019	3
0	3865	136835.086633447019	3
0	3867	136836.153095455615	2
0	3870	136841.141069919797	1
0	3872	136867.29924900967	2
0	3872	136867.29924900967	2
0	3874	136976.690469076235	1
0	3877	137037.338184801666	0
0	3881	137180.650540235333	1
0	3881	137180.650540235333	0
0	3885	137220.730728502882	1
0	3885	137220.730728502882	0
0	3890	137474.91847600355	1
0	3890	137474.91847600355	0
0	3893	138014.194279036592	1
0	3893	138014.194279036592	0
0	3896	138176.980758495194	1
0	3896	138176.980758495194	0
0	3898	138188.996092721763	1
0	3898	138188.996092721763	0
0	3900	138370.177998792443	1
0	3900	138370.177998792443	0
0	3905	138480.812394166572	1
0	3905	138480.812394166572	0
0	3907	138522.848982501505	1
0	3907	138522.848982501505	0
0	3910	138597.92960624954	1
0	3910	138597.92960624954	0
0	3913	138727.983994095694	1
0	3913	138727.983994095694	0
0	3916	139109.661733839808	1
0	3916	139109.661733839808	0
0	3919	139186.163992675222	1
0	3919	139186.163992675222	0
0	3921	139219.962905326461	1
0	3921	139219.962905326461	0
0	3925	139542.908879526478	1
0	3925	139542.908879526478	0
0	3927	139551.978951583263	1
0	3927	139551.978951583263	0
0	3931	139777.566741466465	1
0	3931	139777.566741466465	0
0	3933	139778.751555880551	1
0	3933	139778.751555880551	0
0	3936	139953.620612745236	1
0	3936	139953.620612745236	0
0	3941	140295.291398469476	1
0	3941	140295.291398469476	0
0	3943	140307.257504521783	1
0	3943	140307.257504521783	0
0	3946	140378.011766218645	1
0	3946	140378.011766218645	0
0	3948	140465.749090909893	1
0	3948	140465.749090909893	0
0	3952	140858.119339559018	1
0	3952	140858.119339559018	0
0	3954	140935.536115638702	1
0	3954	140935.536115638702	0
0	3958	141071.665749962972	1
0	3958	141071.665749962972	0
0	3961	141196.491221712219	1
0	3961	141196.491221712219	0
0	3964	141433.992590911439	1
0	3964	141433.992590911439	0
0	3967	141733.003948178027	1
0	3967	141733.003948178027	0
0	3969	141840.784970266809	1
0	3969	141840.784970266809	0
0	3973	141997.720231807501	1
0	3973	141997.720231807501	0
0	3977	142118.197001248011	1
0	3977	142118.197001248011	0
0	3979	142183.918343554936	1
0	3979	142183.918343554936	0
0	3982	142228.560479729166	1
0	3982	142228.560479729166	0
0	3986	142457.843369130627	1
0	3986	142457.843369130627	0
0	3988	142767.966863234647	1
0	3988	142767.966863234647	0
0	3992	142952.299035982909	1
0	3992	142952.299035982909	0
0	3994	142999.707661691594	1
0	3994	142999.707661691594	0
0	3997	143089.57975283826	1
0	3997	143089.57975283826	0
0	4000	143128.013936385934	1
0	4000	143128.013936385934	0
0	4003	143156.015288904116	1
0	4003	143156.015288904116	0
0	4005	143195.144739814852	1
0	4005	143195.144739814852	0
0	4008	143244.360482907672	1
0	4008	143244.360482907672	0
0	4011	143320.62174546774	1
0	4011	143320.62174546774	0
0	4016	143590.786723735677	1
0	4016	143590.786723735677	0
0	4019	143957.160015524664	1
0	4019	143957.160015524664	0
0	4022	144082.726811763406	1
0	4022	144082.726811763406	0
0	4024	144123.144717195452	1
0	4024	144123.144717195452	0
0	4026	144141.478418130888	1
0	4026	144141.478418130888	0
0	4028	144159.118982249393	1
0	4028	144159.118982249393	0
0	4031	144190.990221101938	1
0	4031	144190.990221101938	0
0	4033	144212.379325563334	1
0	4033	144212.379325563334	0
0	4035	144304.331501681336	1
0	4035	144304.331501681336	1
0	4036	144400.559033115024	2
0	4036	144400.559033115024	2
0	4038	144409.746971911559	1
0	4040	144439.217726090745	2
0	4040	144439.217726090745	2
0	4041	144464.987166999213	3
0	4041	144464.987166999213	3
0	4043	144476.698399743106	2
0	4045	144512.270566683378	3
0	4045	144512.270566683378	3
0	4046	144570.657338898111	4
0	4046	144570.657338898111	4
0	4048	144593.008903418826	3
0	4051	144596.167139426403	2
0	4054	144596.604609599576	1
0	4057	144638.796375392058	0
0	4059	144642.937062928432	1
0	4059	144642.937062928432	1
0	4060	144644.661613750059	2
0	4060	144644.661613750059	2
0	4062	144672.184225868949	1
0	4065	144721.433775383617	0
0	4068	144778.021751127334	1
0	4068	144778.021751127334	0
0	4070	144785.591266798248	1
0	4070	144785.591266798248	1
0	4072	144809.101683092245	0
0	4075	144823.625267637681	1
0	4075	144823.625267637681	0
0	4081	145063.399271831597	1
0	4081	145063.399271831597	0
0	4084	145186.07718452383	1
0	4084	145186.07718452383	0
0	4088	145376.352281494517	1
0	4088	145376.352281494517	0
0	4090	145441.447791610738	1
0	4090	145441.447791610738	0
0	4092	145468.203039058318	1
0	4092	145468.203039058318	0
0	4094	145482.766979268286	1
0	4094	145482.766979268286	0
0	4097	145552.526590562574	1
0	4097	145552.526590562574	0
0	4099	145590.784709532236	1
0	4099	145590.784709532236	0
0	4105	145865.686232281371	1
0	4105	145865.686232281371	0
0	4107	145917.685836980467	1
0	4107	145917.685836980467	0
0	4109	145951.280405525565	1
0	4109	145951.280405525565	0
0	4113	146048.394042454839	1
0	4113	146048.394042454839	0
0	4116	146185.769627229337	1
0	4116	146185.769627229337	0
0	4118	146227.431979147248	1
0	4118	146227.431979147248	0
0	4120	146321.019426631188	1
0	4120	146321.019426631188	0
0	4125	146603.969396383305	1
0	4125	146603.969396383305	0
0	4129	146884.609526043205	1
0	4129	146884.609526043205	0
0	4132	147019.910489425959	1
0	4132	147019.910489425959	0
0	4135	147325.957818316023	1
0	4135	147325.957818316023	0
0	4138	147349.441961987201	1
0	4138	147349.441961987201	0
0	4140	147364.133545834387	1
0	4140	147364.133545834387	0
0	4145	147649.344163730018	1
0	4145	147649.344163730018	0
0	4147	147695.01631264142	1
0	4147	147695.01631264142	0
0	4149	147751.235426947239	1
0	4149	147751.235426947239	0
0	4152	147853.993976102108	1
0	4152	147853.993976102108	0
0	4154	147893.632191875727	1
0	4154	147893.632191875727	0
0	4157	147971.746001642988	1
0	4157	147971.746001642988	0
0	4159	148018.263300380902	1
0	4159	148018.263300380902	0
0	4161	148075.795004704693	1
0	4161	148075.795004704693	1
0	4162	148086.122265227208	2
0	4162	148086.122265227208	2
0	4164	148099.016661790069	1
0	4166	148100.696280882735	2
0	4166	148100.696280882735	2
0	4168	148123.46719279308	1
0	4171	148176.00563787623	0
0	4176	148387.470598916606	1
0	4176	148387.470598916606	0
0	4181	148845.554561643361	1
0	4181	148845.554561643361	0
0	4184	148941.148333907436	1
0	4184	148941.148333907436	0
0	4187	149274.116316304495	1
0	4187	149274.116316304495	0
0	4190	149381.673137209675	1
0	4190	149381.673137209675	0
0	4192	149550.347789908375	1
0	4192	149550.347789908375	0
0	4194	149586.081555708468	1
0	4194	149586.081555708468	0
0	4197	149718.048976863275	1
0	4197	149718.048976863275	0
0	4200	149799.053343383902	1
0	4200	149799.053343383902	0
0	4203	149931.682114212553	1
0	4203	149931.682114212553	0
0	4206	150009.848485818658	1
0	4206	150009.848485818658	0
0	4208	150037.904700696642	1
0	4208	150037.904700696642	0
0	4211	150071.448487448018	1
0	4211	150071.448487448018	0
0	4213	150126.033697185163	1
0	4213	150126.033697185163	0
0	4215	150126.731727217297	1
0	4215	150126.731727217297	1
0	4216	150194.250563513605	2
0	4216	150194.250563513605	2
[...]
1	55387	2009626.724103828286	0
1	55390	2010049.299552927299	0
1	55393	2010360.157596685184	0
1	55396	2010554.307423644332	0
1	55398	2010588.060468891443	0
1	55402	2010598.857683355826	0
1	55404	2010672.316991356559	0
1	55407	2010714.432574186478	0
1	55409	2010765.141733059055	0
1	55411	2010830.563755094569	0
1	55414	2010856.258700683245	0
1	55420	2011001.927296317192	0
1	55422	2011238.266414336614	0
1	55425	2011284.391570326929	0
1	55427	2011300.656088220422	0
1	55429	2011327.923531833429	0
1	55435	2011504.661407739783	0
1	55438	2011705.842412459682	0
1	55441	2011808.054072741411	0
1	55443	2011822.740479658974	0
1	55446	2011878.212162333966	0
1	55449	2012011.79888222955	0
1	55452	2012063.41519623348	0
1	55455	2012173.265645949425	0
1	55457	2012223.065903787276	0
1	55459	2012403.563186758266	0
1	55462	2012429.41340680684	0
1	55466	2012470.285214200434	0
1	55471	2012615.232505362762	0
1	55473	2012634.559945898938	0
1	55476	2012875.902624329974	0
1	55479	2012918.076007054342	0
1	55481	2012936.319073241123	0
1	55483	2013006.038775666474	0
1	55487	2013028.556100502927	12.940631985959
1	55493	2013489.107345730015	0
1	55497	2013766.351571179228	0
1	55500	2013845.331290152497	0
1	55503	2014083.71565325849	0
1	55506	2014171.891250777568	0
1	55509	2014255.729275422644	0
1	55511	2014328.534034405777	0
1	55515	2014879.638494518568	0
1	55517	2014893.83687243783	0
1	55521	2015114.407657863838	0
1	55524	2015176.137084411049	0
1	55526	2015287.433356998775	0
1	55528	2015316.448975493145	0
1	55530	2015326.563862042577	0
1	55533	2015670.133060807055	0
1	55537	2015825.612368760388	0
1	55539	2015872.968202228563	0
1	55543	2015898.130075359796	0
1	55548	2016357.02120541703	0
1	55550	2016500.220322159412	0
1	55552	2016541.787265924388	0
1	55554	2016595.969488690721	0
1	55558	2016818.943856024822	0
1	55560	2016835.02718241826	0
1	55562	2016867.154781174398	0
1	55565	2016936.154252137137	0
1	55569	2016955.098302567528	1.843741231731
1	55574	2017019.432013606933	42.812155157713
1	55577	2017021.032574447909	21.135316600375
1	55582	2017100.090641440498	0
1	55584	2017169.576850429143	0
1	55590	2017580.919242776752	0
1	55592	2017631.995865878219	0
1	55596	2017738.17632182458	0
1	55599	2017825.117645439511	0
1	55602	2017981.216435678855	0
1	55604	2018033.2140283498	0
1	55607	2018121.297133934479	0
1	55609	2018142.696604715881	0
1	55613	2018288.681078078062	0
1	55616	2018336.811749393543	0
1	55618	2018477.293115167427	0
1	55621	2018731.355757587433	0
1	55623	2018796.938497988983	0
1	55625	2018906.077867637815	0
1	55629	2019012.536049662323	0
1	55633	2019158.428791268831	0
1	55635	2019158.749456267967	0
1	55639	2019205.987609980228	0
1	55644	2019721.359191328127	0
1	55646	2019838.676717328556	0
1	55648	2019881.722914946308	0
1	55652	2020417.089942148172	0
1	55654	2020425.129352974863	0
1	55657	2020542.725268032995	0
1	55661	2020592.894971462792	0
1	55664	2020614.074206926223	0
1	55667	2020638.610868096729	0
1	55670	2020766.119118547834	0
1	55672	2020785.69308997197	0
1	55676	2021100.976927134949	0
1	55679	2021197.65983056899	0
1	55681	2021259.10851306567	0
1	55684	2021372.543121921691	0
1	55687	2021817.596712250713	0
1	55691	2021948.977555204655	0
1	55693	2021982.332882389028	0
1	55695	2022100.77114153717	0
1	55699	2022187.498786202296	0
1	55702	2022196.157309057918	0
1	55707	2022560.895631900305	0
1	55710	2022591.582814734041	0
1	55713	2022684.574521751688	0
1	55715	2022751.74625450225	0
1	55717	2022902.148199272001	0
1	55719	2022911.742537209456	0
1	55721	2022916.922813483897	0
1	55724	2022980.899065583244	0
1	55730	2023370.092511797397	0
1	55733	2023461.191865485229	0
1	55735	2023605.651941706599	0
1	55737	2023633.481429664149	0
1	55739	2023636.139421298499	0
1	55744	2023951.091489670213	0
1	55747	2024072.105001992457	0
1	55750	2024201.992374478173	0
1	55754	2024381.49820124912	0
1	55756	2024470.783960831724	0
1	55759	2024499.526379566721	0
1	55762	2024527.492867610794	0
1	55764	2024542.205838160647	0
1	55767	2024569.921102937881	0
1	55769	2024574.0328484456	0
1	55773	2024692.377077924722	0
1	55775	2024701.410082518933	0
1	55778	2024792.418776261055	0
1	55782	2024796.460857457589	3.075979320847
1	55789	2024992.672444367265	0
1	55792	2025304.800603053559	0
1	55794	2025328.156368296341	0
1	55797	2025484.16111018913	0
1	55799	2025974.412200397521	0
1	55801	2026021.946416846551	0
1	55805	2026099.5977962038	0
1	55808	2026133.355705783005	0
1	55810	2026182.875636616392	0
1	55813	2026197.078419003259	0
1	55815	2026256.494485519101	0
1	55819	2026315.107493828943	0
1	55824	2026457.815158495938	0
1	55827	2026513.532603840041	0
1	55830	2026597.383824327036	0
1	55832	2026626.221123066413	0
1	55835	2026695.191860863546	0
1	55840	2026832.340825104948	0
1	55842	2026832.617852821943	0
1	55845	2026909.862679203283	0
1	55848	2027005.945325404781	0
1	55852	2027525.183758459554	0
1	55854	2027597.517950738539	0
1	55857	2027806.302653706196	0
1	55859	2027832.752697059212	0
1	55863	2028129.39431056177	0
1	55866	2028295.731401080786	0
1	55869	2028394.102815447818	0
1	55872	2028564.452249490283	0
1	55875	2028827.30923580114	0
1	55878	2028910.671374570645	0
1	55880	2028922.077524170971	0
1	55885	2029367.444706914998	0
1	55888	2029456.32360748612	0
1	55890	2029543.02077756931	0
1	55892	2029559.041268010494	0
1	55894	2029589.444819134328	0
1	55900	2029888.139033664956	0
1	55902	2030012.609705081635	0
1	55905	2030059.647530831737	0
1	55907	2030180.385997243972	0
1	55910	2030202.215583534912	0
1	55912	2030347.352710371094	0
1	55916	2030613.341448732049	0
1	55918	2030617.090950930749	0
1	55922	2030686.099768779683	0
1	55924	2030713.853246693982	0
1	55930	2031011.199509716767	0
1	55933	2031023.483556782836	0
1	55936	2031190.921827864846	0
1	55938	2031329.559851280977	0
1	55942	2031349.65029670319	0
1	55944	2031518.015267101448	0
1	55946	2031590.133713989677	0
1	55948	2031615.170060941502	0
1	55953	2031841.72686482268	0
1	55956	2032004.807296206817	0
1	55960	2032396.664548053124	0
1	55962	2032626.394189172273	0
1	55965	2032789.858542406526	0
1	55968	2032863.63437751613	0
1	55972	2032974.692577277241	0
1	55974	2033068.479139932348	0
1	55977	2033251.577500084992	0
1	55980	2033357.763523306664	0
1	55982	2033400.849283436352	0
1	55985	2033441.488909194151	0
1	55987	2033449.617676581292	0
1	55991	2033663.025710601726	0
1	55994	2033823.032290329975	0
1	55998	2034026.725419381546	0
1	56002	2034339.21068160295	0
1	56004	2034587.61812613525	0
1	56008	2034651.067001340479	0
1	56011	2034821.037654049532	0
1	56013	2034843.182826334734	0
1	56016	2034890.532724477864	0
1	56019	2034934.942056633258	0
1	56021	2034978.475127217664	0
1	56023	2035068.472513120637	0
1	56026	2035137.793310956744	0
1	56029	2035172.709607518939	0
1	56033	2035265.594236630609	0
1	56038	2035480.594615841327	0
1	56041	2035735.445917804175	0
1	56044	2035871.776834447347	0
1	56046	2035881.911391066875	0
1	56048	2035993.024495214732	0
1	56050	2036003.389334361734	0
1	56056	2036116.651407060417	0
1	56058	2036138.406200011543	0
1	56062	2036415.213817372622	0
1	56064	2036663.787793951211	0
1	56066	2036708.419306666022	0
1	56070	2036794.877874588714	0
1	56072	2036838.129739391311	0
1	56076	2037173.554770523065	0
1	56079	2037235.927863683404	0
1	56083	2037999.255379509858	0
1	56085	2038148.168379651488	0
1	56087	2038176.541274259919	0
1	56091	2038315.629290489418	0
1	56093	2038318.012993360595	0
1	56096	2038348.830156617774	0
1	56100	2038442.290577729018	0
1	56104	2038884.38161542474	0
1	56106	2038920.872971596114	0
1	56109	2039076.195541181616	0
1	56112	2039192.013409545357	0
1	56114	2039204.614384188847	0
1	56117	2039349.035990478916	0
1	56122	2040005.684497772204	0
1	56124	2040018.54155165113	0
1	56127	2040121.041642782481	0
1	56131	2040246.398796414792	0
1	56134	2040411.508759896713	0
1	56136	2040533.252034609658	0
1	56139	2040762.555232431247	0
1	56143	2041201.982595679659	0
1	56145	2041213.656014475766	0
1	56149	2041575.338112174424	0
1	56152	2041873.299991524156	0
1	56154	2041999.430386439323	0
1	56156	2042043.310332883196	0
1	56161	2042250.812377949929	0
1	56163	2042287.376297011082	0
1	56165	2042303.188202963928	0
1	56167	2042315.497925353842	0
1	56170	2042326.544062737804	0
1	56174	2042443.51425211516	0
1	56177	2042446.952058612559	0
1	56181	2042544.490642201946	0
1	56183	2042546.502432847102	0
1	56187	2042649.292635975603	0
1	56191	2042994.471806095039	0
1	56194	2043141.030810916545	0
1	56197	2043316.1327516083	0
1	56200	2043662.171202562704	0
1	56203	2043733.823244411994	0
1	56205	2043782.261611480462	0
1	56208	2043920.394747843792	0
1	56210	2043944.186135142776	0
1	56213	2044036.106998131225	0
1	56218	2044186.436406402546	0
1	56221	2044275.89011895211	0
1	56223	2044317.084777613006	0
1	56226	2044408.718468968664	0
1	56229	2044470.705375419707	0
1	56233	2044946.01147655163	0
1	56236	2045373.52538482143	0
1	56238	2045391.486819266376	0
1	56240	2045491.961686270103	0
1	56243	2045577.184152553301	0
1	56246	2045675.849694443203	0
1	56248	2045703.751752954484	0
1	56250	2045803.987024338564	0
1	56256	2045976.557981257971	0
1	56259	2046006.646965198956	0
1	56262	2046087.676856444402	0
1	56264	2046110.276409281802	0
1	56267	2046140.275895764798	0
1	56269	2046171.076863115625	0
1	56274	2046324.083213561097	0
1	56278	2046591.715902954009	0
1	56280	2046649.230248149914	0
1	56284	2047152.423236854794	0
1	56286	2047261.376737318164	0
1	56289	2047556.680020951215	0
1	56292	2047714.757306149027	0
1	56294	2047739.474831136029	0
1	56296	2047764.520090489146	0
1	56300	2048037.106238404101	0
1	56304	2048305.836256327279	0
1	56306	2048320.786723882466	0
1	56308	2048369.14190701871	0
1	56313	2048464.45317794249	0
1	56315	2048497.672269948441	0
1	56318	2048610.689549557147	0
1	56322	2048827.52760481831	0
1	56324	2048830.780956763082	0
1	56328	2048936.216991609414	0
1	56330	2048979.030564443402	0
1	56334	2049277.652430129747	0
1	56337	2049470.995364592073	0
1	56341	2049811.998846676707	0
1	56344	2049864.156386100001	0
1	56346	2049881.030013278744	0
1	56348	2049890.8295204197	0
1	56353	2050005.452012643112	0
1	56356	2050034.858722305081	0
1	56359	2050065.144191914791	0
1	56362	2050366.529080140818	0
1	56364	2050481.825777516235	0
1	56368	2050733.931047602196	0
1	56370	2050928.906025697816	0
1	56373	2050958.964450540636	0
1	56377	2051167.538406581526	0
1	56379	2051202.319361646163	0
1	56381	2051258.736082589073	0
1	56385	2051544.117109365403	0
1	56388	2051597.086896467236	0
1	56390	2051600.820875772073	0
1	56392	2051630.247499121909	0
1	56394	2051665.50468600549	0
1	56397	2051755.309390830626	0
1	56401	2051906.458071514084	130.4040721331
1	56405	2051925.801332729808	13.407329650016
1	56410	2052072.459409425698	0
1	56412	2052086.500634298936	0
1	56416	2052217.565257877508	0
1	56419	2052272.332828455222	0
1	56423	2052474.924185081338	0
1	56426	2052732.944765836945	0
1	56428	2052836.469421673249	0
1	56430	2052851.889626523892	0
1	56436	2053017.441191396415	0
1	56438	2053053.303048658626	0
1	56440	2053101.919542758102	0
1	56443	2053151.319127445344	0
1	56445	2053192.917181043357	0
1	56449	2053282.747422766674	0
1	56451	2053333.491391889958	0
1	56454	2053386.813625383076	0
1	56456	2053514.126171068632	0
1	56461	2053691.298850107534	0
1	56463	2053730.71055543902	0
1	56465	2053740.518210780627	0
1	56468	2053806.358622771731	0
1	56472	2053816.489073776089	0.074079904794
1	56476	2053827.189340363834	2.724652202174
1	56480	2053879.220926251864	3.185481803855
1	56484	2053947.302622349144	35.396384503316
1	56488	2054000.453488921294	34.225475149222
1	56493	2054248.781792839764	0
1	56496	2054345.552556111174	0
1	56498	2054383.200948209888	0
1	56501	2054420.657987025961	0
1	56505	2054595.39734876803	0
1	56508	2054673.476608752847	0
1	56510	2054708.514564590923	0
1	56512	2054808.528239793856	0
1	56519	2055245.979825884531	0
1	56521	2055272.518923810527	0
1	56524	2055514.236728457192	0
1	56527	2055737.859437668778	0
1	56529	2055847.242838288376	0
1	56531	2055945.212566207897	0
1	56533	2055994.271576191883	0
1	56540	2056462.394326416059	0
1	56543	2056595.027367642145	0
1	56546	2056962.187230544263	0
1	56549	2057087.897139026655	0
1	56552	2057332.652526641526	0
1	56554	2057395.401259162571	0
1	56557	2057510.747965717402	0
1	56560	2057576.406884980139	0
1	56562	2057637.702240047153	0
1	56564	2057643.590241401379	0
1	56567	2057671.932987048909	0
1	56569	2057688.39907685666	0
1	56574	2057957.594594980191	0
1	56576	2057964.86562288408	0
1	56579	2058013.211881226471	0
1	56581	2058090.976431711649	0
1	56585	2058122.84909790148	8.926300056549
1	56589	2058199.156204360904	16.553518129115
1	56593	2058224.937495691528	23.806480505727
1	56597	2058361.429351551046	0
1	56603	2058481.345555681812	0
1	56606	2058524.933877810399	0
1	56608	2058615.065670975897	0
1	56610	2058673.486492471705	0
1	56614	2058746.562935433177	0
1	56617	2058915.261641180444	0
1	56621	2059418.08903816117	0
1	56624	2059595.197525170075	0
1	56627	2059612.136204057823	0
1	56630	2059912.471538358661	0
1	56633	2060002.466573116931	0
1	56635	2060020.695322345196	0
1	56638	2060102.928321199457	0
1	56640	2060128.176105291092	0
1	56645	2060222.841861113231	0
1	56648	2060546.106091315086	0
1	56650	2060565.626153815772	0
1	56654	2060834.878317834918	0
1	56657	2060917.36379297558	0
1	56659	2060952.83768856446	0
1	56661	2061013.227271242821	0
1	56663	2061018.803463823033	0
1	56666	2061200.977137070756	0
1	56669	2061225.132744528529	0
1	56673	2061256.103184782571	0
1	56677	2061622.379207695618	0
1	56679	2061700.627631573411	0
1	56681	2061725.693643953462	0
1	56684	2061774.051381072448	0
1	56686	2061776.900505199111	0
1	56690	2061794.45580118722	13.261737242959
1	56694	2061907.450178037979	0
1	56697	2061937.035551412978	0
1	56702	2062228.890718672926	0
1	56705	2062350.193253324699	0
1	56707	2062363.59259082447	0
1	56709	2062374.343886198298	0
1	56714	2062696.253477652254	0
1	56717	2062758.859235740063	0
1	56719	2062801.178796640153	0
1	56722	2062890.707567536714	0
1	56725	2062977.758975829947	0
1	56727	2062997.676266796721	0
1	56729	2063009.41850007153	0
1	56733	2063099.032372486025	82.134031665877
1	56737	2063121.098711210799	0
1	56739	2063147.789211837363	0
1	56745	2063417.89162760508	0
1	56747	2063575.313100903496	0
1	56751	2063719.465181114966	0
1	56754	2063733.136280258791	0
1	56757	2063860.669306514336	0
1	56760	2064041.629399201768	0
1	56762	2064189.28176753513	0
1	56765	2064252.631336043291	0
1	56768	2064271.517462042587	0
1	56772	2064418.662648262454	0
1	56774	2064427.853812477575	0
1	56777	2064633.654772635755	0
1	56780	2064732.2636761169	0
1	56783	2064767.30984233819	0
1	56787	2065102.553577452774	0
1	56790	2065339.02583003394	0
1	56792	2065352.727881775414	0
1	56794	2065361.670770328077	0
1	56797	2065392.463818547619	0
1	56801	2065468.494266120852	0
1	56803	2065474.681007782444	0
1	56805	2065487.981719733013	0
1	56810	2065745.066738885361	0
1	56813	2065811.497400654738	0
1	56815	2065839.738682908559	0
1	56818	2066016.407117845758	0
1	56823	2066201.819945294332	0
1	56827	2066534.94078225974	0
1	56829	2066603.42674872202	0
1	56833	2066705.870387071032	0
1	56836	2067141.267176697171	0
1	56838	2067151.810930791526	0
1	56840	2067163.263857715861	0
1	56842	2067175.639616727483	0
1	56846	2067276.661975662434	0
1	56850	2067400.821920191858	0
1	56854	2067570.897013676682	0
1	56857	2067677.027788261745	0
1	56860	2067926.048667467191	0
1	56862	2067969.396384957153	0
1	56865	2068171.477821685634	0
1	56867	2068227.928157822471	0
1	56870	2068288.301191664537	0
1	56873	2068318.629642145397	0
1	56875	2068384.026414683466	0
1	56879	2068466.816796964153	0
1	56883	2068630.660163020372	0
1	56885	2068641.342848445885	0
1	56888	2068843.645191621802	0
1	56890	2068968.463031256733	0
1	56893	2069028.594144605615	0
1	56896	2069105.692582941516	0
1	56898	2069121.932297426819	0
1	56901	2069139.746032190537	0
1	56908	2069304.360059548903	0
1	56911	2069818.952220796922	0
1	56914	2070161.752002123688	0
1	56916	2070208.05669662399	0
1	56918	2070236.634952351979	0
1	56921	2070256.980645218559	0
1	56923	2070316.577529994323	0
1	56929	2070689.654783292077	0
1	56931	2070732.644684782154	0
1	56933	2070735.926070853507	0
1	56935	2070752.982809386212	0
1	56937	2070765.35732172542	0
1	56941	2070875.996452147951	0
1	56943	2070908.185998740771	0
1	56947	2070975.908570165196	9.512815363224
1	56952	2071143.654655562555	0
1	56955	2071232.615568851174	0
1	56958	2071277.389536663702	0
1	56962	2071446.154565520183	0
1	56966	2071642.376473594861	0
1	56968	2071731.152350689728	0
1	56971	2071909.028577579689	0
1	56973	2071929.005687045733	0
1	56976	2072039.860010056954	0
1	56981	2072647.604456055328	0
1	56983	2072665.59116209024	0
1	56986	2072828.360806439129	0
1	56989	2072913.878040884609	0
1	56993	2072999.815199329597	0
1	56996	2073152.810819879128	0
1	56998	2073154.532891103159	0
1	57000	2073285.167775110029	0
1	57004	2073385.284843568005	0
1	57007	2073441.192676721296	0
1	57011	2073661.51527265511	0
1	57013	2073677.220860853016	0
1	57016	2073745.334808584075	0
1	57018	2073774.740928312746	0
1	57023	2074074.120971665916	0
1	57025	2074192.901422868718	0
1	57028	2074407.02838116876	0
1	57030	2074435.861292766635	0
1	57032	2074455.161174717936	0
1	57035	2074500.861702423909	0
1	57041	2074677.013219181737	0
1	57044	2074955.75546962311	0
1	57047	2075029.939315857457	0
1	57049	2075103.745533583555	0
1	57051	2075106.85986554759	0
1	57054	2075336.736938692017	0
1	57056	2075341.196309584046	0
1	57058	2075351.549091266402	0
1	57062	2075393.874810627947	6.664856816526
1	57065	2075463.148657364062	0
1	57071	2075815.050966586798	0
1	57075	2075936.400025377685	0
1	57078	2076008.298289812045	0
1	57081	2076061.742474853506	0
1	57083	2076117.170182245591	0
1	57086	2076316.141341812049	0
1	57090	2076360.532456723324	0
1	57092	2076425.024087157993	0
1	57096	2076670.779782447312	0
1	57098	2076731.391909808723	0
1	57100	2076756.855605280844	0
1	57105	2077323.864058877263	0
1	57107	2077388.394444342355	0
1	57110	2077418.946717463056	0
1	57112	2077451.74488402852	0
1	57114	2077452.933604543585	0
1	57117	2077481.735572112029	0
1	57120	2077516.292450907566	0
1	57124	2077602.336548803377	0
1	57127	2077646.482290961682	0
1	57129	2077671.082474071657	0
1	57131	2077696.224699681166	0
1	57135	2077784.46445114887	37.982292604199
1	57139	2077828.769295196631	0
1	57141	2077831.856713441138	0
1	57148	2078034.48359267322	0
1	57150	2078098.255064861596	0
1	57152	2078111.812569685842	0
1	57157	2078250.22290910614	0
1	57159	2078433.745733013701	0
1	57161	2078460.551964649693	0
1	57166	2078653.414593186697	0
1	57169	2079033.76539210287	0
1	57172	2079192.356761072066	0
1	57174	2079207.762903338062	0
1	57176	2079293.644632299392	0
1	57179	2079408.151080930954	0
1	57181	2079419.782822247935	0
1	57186	2079557.670985386268	0
1	57188	2079557.681837250796	0
1	57191	2079599.093914658185	0
1	57196	2079887.961697001856	0
1	57199	2079940.244732909456	0
1	57202	2080178.00610178557	0
1	57205	2080564.041978218532	0
1	57207	2080601.432976898016	0
1	57210	2080668.203228883017	0
1	57212	2080678.548182135459	0
1	57216	2080976.863031276569	0
1	57218	2081008.513129478899	0
1	57220	2081017.759302869145	0
1	57223	2081145.270589292265	0
1	57225	2081214.76476300635	0
1	57230	2081342.68479065066	0
1	57232	2081366.585215889574	0
1	57234	2081384.119801705371	0
1	57238	2081523.422618065225	0
1	57240	2081543.587703607679	0
1	57244	2081698.903740936259	0
1	57246	2081708.056067267397	0
1	57249	2081717.965678176162	0
1	57253	2081829.054981474268	41.203983797372
1	57260	2082006.341018282158	0
1	57263	2082191.210272309218	0
1	57265	2082277.034939380783	0
1	57267	2082436.007187351023	0
1	57272	2082520.453875911698	0
1	57274	2082531.002674806808	0
1	57276	2082675.859471956235	0
1	57280	2082815.353131707707	0
1	57284	2083018.521644993947	0
1	57286	2083031.209741247946	0
1	57290	2083436.273420844086	0
1	57293	2083516.522251705494	0
1	57295	2083560.000713453754	0
1	57298	2083841.029564297687	0
1	57300	2083842.688214414674	0
1	57304	2084002.365186077487	0
1	57308	2084152.540160479045	0
1	57311	2084312.116747146798	0
1	57313	2084352.624558379828	0
1	57316	2084505.963600817183	0
1	57318	2084523.189984171267	0

