version 2
run General-4-20180204-17:50:47-11948
attr configname General
attr datetime 20180204-17:50:47
attr experiment General
attr inifile carrefour.ini
attr iterationvars $0=18.75
attr iterationvarsf 18.75-
attr measurement $0=18.75
attr network Carrefour
attr processid 11948
attr repetition 0
attr replication #0
attr resultdir results
attr runnumber 4
attr seedset 4
param **.lambda 18.75
param **.numeroCasse 2
param **.mu 30
param **.tipoSimulazione 0
param **.delay 3
param **.ServiceType 1
param **.varianceLogNormal 0.25
param **.meanLogNormal 30

vector 0 Carrefour.coda 1_Lambda:vector ETV
attr source Interarrivals
attr title "1/lambda, vector"
vector 1 Carrefour.coda E_Nq:vector ETV
attr source QueueLenght
attr title "E[Nq], vector"
vector 2 Carrefour.coda E_W:vector ETV
attr source Queuing
attr title "E[W], vector"
vector 3 Carrefour.decisore E_R:vector ETV
attr source TotalTime
attr title "E[R], vector"
vector 4 Carrefour.decisore ActiveTillStat:vector ETV
attr source ActiveTill
attr title "Active Till, vector"
0	1	7	7
0	4	41.181103338086	34.181103338086
0	6	56.268589290014	15.087485951928
0	7	60.230893595732	3.962304305718
0	8	62.105171414163	1.874277818431
0	10	63.68244793494	1.577276520777
0	14	90.733968982801	27.051521047861
0	21	118.925191897918	28.191222915117
0	22	125.837945450376	6.912753552458
0	31	164.650064636336	38.81211918596
0	36	186.370789450935	21.720724814599
0	37	190.664589063271	4.293799612336
0	38	196.857355587257	6.192766523986
0	41	201.437829804246	4.580474216989
0	45	209.158954243122	7.721124438876
0	47	210.721988770964	1.563034527842
0	48	217.805777158717	7.083788387753
0	59	273.336601808023	55.530824649306
0	62	280.174447164787	6.837845356764
0	63	293.623864465914	13.449417301127
0	64	306.674398309014	13.0505338431
0	71	339.169089387762	32.494691078748
0	77	346.012611761735	6.843522373973
0	79	366.644099206965	20.63148744523
0	91	422.436802160542	55.792702953577
0	97	467.762853289449	45.326051128907
0	100	475.510045136051	7.747191846602
0	102	481.142900898855	5.632855762804
0	103	495.340439186157	14.197538287302
0	110	527.501562092963	32.161122906806
0	116	624.241208787285	96.739646694322
0	118	631.129105872586	6.887897085301
0	120	643.776040032683	12.646934160097
0	124	661.741746962412	17.965706929729
0	129	698.69477020859	36.953023246178
0	132	716.334239873948	17.639469665358
0	133	721.652469761048	5.3182298871
0	135	725.407161752652	3.754691991604
0	139	747.371446983838	21.964285231186
0	146	770.713604394449	23.342157410611
0	147	781.734304211547	11.020699817098
0	153	798.060075486435	16.325771274888
0	157	824.412338296394	26.352262809959
0	162	843.882569245763	19.470230949369
0	163	848.091433883217	4.208864637454
0	164	851.218358149171	3.126924265954
0	165	856.83533603768	5.616977888509
0	172	889.284926606975	32.449590569295
0	179	926.92939200152	37.644465394545
0	186	952.706340676823	25.776948675303
0	187	952.97710151516	0.270760838337
0	191	965.220934834498	12.243833319338
0	198	1003.727840572869	38.506905738371
0	203	1028.631821963452	24.903981390583
0	207	1069.67952909672	41.047707133268
0	209	1085.314031737032	15.634502640312
0	211	1095.898300549786	10.584268812754
0	215	1109.02283151884	13.124530969054
0	220	1141.807732029973	32.784900511133
0	222	1148.189370145706	6.381638115733
0	225	1161.164351800665	12.974981654959
0	230	1181.392243676515	20.22789187585
0	231	1186.798374878091	5.406131201576
0	235	1207.425723630729	20.627348752638
0	238	1210.959808621212	3.534084990483
0	240	1215.699254643004	4.739446021792
0	241	1228.879844199555	13.180589556551
0	244	1230.87789623455	1.998052034995
0	246	1236.253963196255	5.376066961705
0	250	1251.172128707549	14.918165511294
0	251	1258.595621379798	7.423492672249
0	258	1298.765287409304	40.169666029506
0	265	1335.799183301127	37.033895891823
0	272	1365.119030942388	29.319847641261
0	273	1365.963139339484	0.844108397096
0	280	1387.095782469884	21.1326431304
0	287	1427.175433110605	40.079650640721
0	288	1431.011151152875	3.83571804227
0	289	1435.987685081858	4.976533928983
0	296	1452.531266554607	16.543581472749
0	297	1460.793714871013	8.262448316406
0	298	1466.537917289872	5.744202418859
0	305	1503.564815816957	37.026898527085
0	312	1527.949129467867	24.38431365091
0	316	1545.362075336237	17.41294586837
0	320	1572.053653394225	26.691578057988
0	323	1574.894786076707	2.841132682482
0	328	1599.088122870581	24.193336793874
0	337	1642.518769287677	43.430646417096
0	343	1680.450216102612	37.931446814935
0	347	1722.013801490051	41.563585387439
0	349	1734.772659737056	12.758858247005
0	351	1749.87442211093	15.101762373874
0	354	1758.315079823615	8.440657712685
0	358	1770.821281986185	12.50620216257
0	360	1779.013239644544	8.191957658359
0	367	1820.907029434502	41.893789789958
0	372	1843.621950764355	22.714921329853
0	375	1857.154362447204	13.532411682849
0	379	1901.205344212804	44.0509817656
0	381	1917.025532038269	15.820187825465
0	382	1919.567895575947	2.542363537678
0	383	1921.238309916951	1.670414341004
0	393	2004.549459805569	83.311149888618
0	395	2009.637386288951	5.087926483382
0	397	2024.778409409195	15.141023120244
0	398	2029.948492988302	5.170083579107
0	405	2061.002067114124	31.053574125822
0	406	2069.115127029982	8.113059915858
0	410	2079.233012621643	10.117885591661
0	411	2082.900720457222	3.667707835579
0	415	2090.421886093997	7.521165636775
0	416	2093.083223969893	2.661337875896
0	417	2095.094981225001	2.011757255108
0	418	2100.6711789463	5.576197721299
0	424	2124.155012414386	23.483833468086
0	426	2128.940491231211	4.785478816825
0	427	2135.186906269334	6.246415038123
0	437	2172.693930613599	37.507024344265
0	438	2183.361280511699	10.6673498981
0	439	2188.088502803961	4.727222292262
0	440	2190.874418170589	2.785915366628
0	446	2203.973313086358	13.098894915769
0	450	2227.933024162987	23.959711076629
0	455	2258.856355462188	30.923331299201
0	462	2281.868420447898	23.01206498571
0	463	2291.661275128729	9.792854680831
0	466	2300.614086226441	8.952811097712
0	476	2337.895879628078	37.281793401637
0	478	2348.030255086581	10.134375458503
0	482	2370.379641276132	22.349386189551
0	488	2400.35013207682	29.970490800688
0	493	2420.764408825685	20.414276748865
0	494	2428.742039039617	7.977630213932
0	501	2451.710563937781	22.968524898164
0	508	2496.901405677363	45.190841739582
0	518	2537.577903842341	40.676498164978
0	519	2541.655325958349	4.077422116008
0	520	2550.634374152316	8.979048193967
0	526	2567.268216868274	16.633842715958
0	527	2568.661355635015	1.393138766741
0	529	2571.822192247619	3.160836612604
0	533	2598.358296404335	26.536104156716
0	536	2600.826413754178	2.468117349843
0	537	2601.281985103216	0.455571349038
0	538	2601.572993228447	0.291008125231
0	540	2617.83761475045	16.264621522003
0	544	2631.078187240494	13.240572490044
0	548	2655.504342594003	24.426155353509
0	555	2674.494912474041	18.990569880038
0	556	2687.899288124392	13.404375650351
0	557	2689.189043345346	1.289755220954
0	560	2696.811434889471	7.622391544125
0	569	2732.922170240862	36.110735351391
0	572	2740.567653866047	7.645483625185
0	573	2749.047640457593	8.479986591546
0	574	2749.399537206657	0.351896749064
0	575	2765.456553009679	16.057015803022
0	580	2767.576321141608	2.119768131929
0	583	2794.756467101681	27.180145960073
0	590	2809.11796606065	14.361498958969
0	591	2810.628880990356	1.510914929706
0	592	2828.556201045813	17.927320055457
0	595	2833.049258275677	4.493057229864
0	596	2834.265849034214	1.216590758537
0	600	2844.384406894304	10.11855786009
0	602	2846.465504702335	2.081097808031
0	606	2872.429472262234	25.963967559899
0	610	2883.169503945597	10.740031683363
0	613	2897.209863291561	14.040359345964
0	617	2912.643797974319	15.433934682758
0	618	2915.273171626038	2.629373651719
0	620	2917.811883230782	2.538711604744
0	627	2956.49366182538	38.681778594598
0	628	2961.007600535501	4.513938710121
0	631	2962.173325459354	1.165724923853
0	633	2971.109873059996	8.936547600642
0	639	2996.881843994611	25.771970934615
0	641	3012.304369354881	15.42252536027
0	642	3012.350854438342	0.046485083461
0	645	3023.173451988797	10.822597550455
0	650	3033.994170432915	10.820718444118
0	657	3088.364885088578	54.370714655663
0	669	3131.395541226772	43.030656138194
0	671	3141.776974392976	10.381433166204
0	672	3144.356369488447	2.579395095471
0	673	3154.828221016813	10.471851528366
0	680	3187.12110506933	32.292884052517
0	681	3188.243616425443	1.122511356113
0	688	3210.497606811104	22.253990385661
0	689	3214.36651757184	3.868910760736
0	695	3239.492566794489	25.126049222649
0	696	3239.542460674911	0.049893880422
0	698	3247.716353495162	8.173892820251
0	705	3288.937010783405	41.220657288243
0	711	3309.867703761932	20.930692978527
0	712	3312.857048688079	2.989344926147
0	731	3416.087316045496	103.23026735742
0	732	3420.933409636486	4.84609359099
0	737	3426.099604298025	5.166194661539
0	738	3450.418210460517	24.318606162492
0	745	3480.708494271996	30.290283811479
0	752	3509.310227478287	28.601733206291
0	753	3509.341054731609	0.030827253322
0	759	3524.911256863812	15.570202132203
0	760	3527.173201876753	2.261945012941
0	767	3560.557399240973	33.38419736422
0	769	3585.476186123947	24.918786882974
0	773	3590.756726543925	5.280540419978
0	776	3596.480945110483	5.724218566558
0	778	3602.638248482884	6.157303372401
0	779	3610.201870043634	7.56362156075
0	786	3638.35751656763	28.155646523996
0	787	3646.454489369484	8.096972801854
0	788	3647.982632077191	1.528142707707
0	792	3657.492696291004	9.510064213813
0	804	3719.712768158932	62.220071867928
0	806	3724.049714721901	4.336946562969
0	807	3725.837144492276	1.787429770375
0	808	3727.775449421156	1.93830492888
0	809	3734.269839974717	6.494390553561
0	812	3743.629218042475	9.359378067758
0	823	3793.665380320294	50.036162277819
0	824	3796.219138674143	2.553758353849
0	825	3807.281684858876	11.062546184733
0	829	3818.024204244267	10.742519385391
0	837	3852.613268316857	34.58906407259
0	839	3853.912213824914	1.298945508057
0	847	3892.333852995173	38.421639170259
0	848	3893.238400436111	0.904547440938
0	849	3913.328304656007	20.089904219896
0	861	3954.74234169778	41.414037041773
0	862	3959.757151737473	5.014810039693
0	872	4016.821987264143	57.06483552667
0	873	4018.975509803841	2.153522539698
0	877	4031.481663951604	12.506154147763
0	884	4066.318612465758	34.836948514154
0	891	4099.925475096282	33.606862630524
0	892	4101.83982958828	1.914354491998
0	897	4122.906541201333	21.066711613053
0	898	4127.228620379617	4.322079178284
0	902	4145.69133769941	18.462717319793
0	906	4152.544980197157	6.853642497747
0	907	4153.957435756845	1.412455559688
0	910	4175.268151172385	21.31071541554
0	917	4210.976193860525	35.70804268814
0	918	4213.75141753279	2.775223672265
0	922	4216.08890117054	2.33748363775
0	924	4243.528740080587	27.439838910047
0	931	4263.000189099469	19.471449018882
0	937	4285.829536786469	22.829347687
0	939	4291.619427340225	5.789890553756
0	944	4316.30329848963	24.683871149405
0	947	4324.310073385638	8.006774896008
0	948	4332.177753727578	7.86768034194
0	949	4338.248224695407	6.070470967829
0	962	4393.600215801529	55.351991106122
0	963	4404.270826527638	10.670610726109
0	975	4460.262442397158	55.99161586952
0	983	4508.705627606791	48.443185209633
0	987	4514.164358827752	5.458731220961
0	1000	4587.748623313767	73.584264486015
0	1001	4592.498645574479	4.750022260712
0	1002	4592.704063995822	0.205418421343
0	1005	4607.140566290917	14.436502295095
0	1007	4609.315674847117	2.1751085562
0	1011	4631.257761479164	21.942086632047
0	1018	4668.96500703451	37.707245555346
0	1031	4720.658479561984	51.693472527474
0	1032	4729.794730008523	9.136250446539
0	1033	4734.482039003988	4.687308995465
0	1034	4735.584617063772	1.102578059784
0	1041	4761.491925700344	25.907308636572
0	1042	4769.477956414845	7.986030714501
0	1055	4826.367276303084	56.889319888239
0	1056	4828.576547360975	2.209271057891
0	1060	4847.590779345623	19.014231984648
0	1067	4887.392548408254	39.801769062631
0	1082	4967.218365872398	79.825817464144
0	1087	4989.678064765505	22.459698893107
0	1090	5004.758111412728	15.080046647223
0	1092	5008.571097874945	3.812986462217
0	1095	5009.920781445032	1.349683570087
0	1103	5063.693279007778	53.772497562746
0	1106	5073.480493246908	9.78721423913
0	1111	5080.715300336849	7.234807089941
0	1112	5084.433286270461	3.717985933612
0	1113	5087.365535244889	2.932248974428
0	1114	5089.529087898436	2.163552653547
0	1115	5095.305807779045	5.776719880609
0	1116	5099.872917127004	4.567109347959
0	1117	5100.461213089015	0.588295962011
0	1120	5106.490409114384	6.029196025369
0	1125	5115.055788032039	8.565378917655
0	1126	5136.134597579321	21.078809547282
0	1135	5172.658084736217	36.523487156896
0	1139	5181.94105046014	9.282965723923
0	1143	5206.582705726811	24.641655266671
0	1147	5219.503587312806	12.920881585995
0	1149	5235.11932810222	15.615740789414
0	1159	5274.100840574089	38.981512471869
0	1162	5292.733522969575	18.632682395486
0	1167	5315.154687429638	22.421164460063
0	1174	5347.516122520177	32.361435090539
0	1175	5350.600179017742	3.084056497565
0	1186	5400.742820695509	50.142641677767
0	1189	5407.714370445574	6.971549750065
0	1196	5439.885498391582	32.171127946008
0	1203	5492.450737687976	52.565239296394
0	1204	5495.781700985774	3.330963297798
0	1207	5501.524146620106	5.742445634332
0	1212	5526.252360413931	24.728213793825
0	1224	5576.115963705137	49.863603291206
0	1230	5611.343082934774	35.227119229637
0	1233	5644.120613519298	32.777530584524
0	1236	5675.62712573106	31.506512211762
0	1239	5693.685516229313	18.058390498253
0	1241	5699.91266755149	6.227151322177
0	1247	5774.444924764262	74.532257212772
0	1249	5781.363628358358	6.918703594096
0	1251	5800.322056911916	18.958428553558
0	1252	5801.404696486534	1.082639574618
0	1255	5808.272404717821	6.867708231287
0	1256	5809.432285320272	1.159880602451
0	1258	5815.000998992549	5.568713672277
0	1262	5838.120576283093	23.119577290544
0	1265	5842.285336249915	4.164759966822
0	1279	5911.637357947552	69.352021697637
0	1280	5918.890826750235	7.253468802683
0	1286	5942.019652750692	23.128826000457
0	1292	5992.300257450046	50.280604699354
0	1295	6019.985565310231	27.685307860185
0	1296	6023.033953586205	3.048388275974
0	1301	6029.876204660094	6.842251073889
0	1306	6066.999299620255	37.123094960161
0	1308	6072.935947616459	5.936647996204
0	1311	6096.966840463655	24.030892847196
0	1313	6099.21339544114	2.246554977485
0	1317	6108.323609197973	9.110213756833
0	1318	6112.603415558284	4.279806360311
0	1319	6124.147472430298	11.544056872014
0	1322	6131.73066664746	7.583194217162
0	1323	6132.495987622556	0.765320975096
0	1328	6145.278639842856	12.7826522203
0	1329	6146.85916689617	1.580527053314
0	1336	6177.109019949291	30.249853053121
0	1337	6181.122601247914	4.013581298623
0	1338	6193.053555997551	11.930954749637
0	1345	6226.1499430871	33.096387089549
0	1349	6236.978483015018	10.828539927918
0	1353	6244.903223252625	7.924740237607
0	1359	6277.969169942145	33.06594668952
0	1367	6323.985042534884	46.015872592739
0	1374	6359.746979741822	35.761937206938
0	1375	6360.239141760134	0.492162018312
0	1382	6396.11904802791	35.879906267776
0	1385	6399.150913179483	3.031865151573
0	1390	6424.870064636121	25.719151456638
0	1400	6475.521984567101	50.65191993098
0	1405	6499.010212277118	23.488227710017
0	1407	6510.967131500322	11.956919223204
0	1408	6513.489422566493	2.522291066171
0	1409	6522.744574797532	9.255152231039
0	1410	6523.11110839701	0.366533599478
0	1413	6527.845749833955	4.734641436945
0	1415	6531.178963727131	3.333213893176
0	1419	6545.906522311273	14.727558584142
0	1420	6557.33445211167	11.427929800397
0	1427	6582.843967193019	25.509515081349
0	1434	6614.929348046512	32.085380853493
0	1435	6620.353136273705	5.423788227193
0	1440	6633.576647866214	13.223511592509
0	1443	6655.866946042144	22.29029817593
0	1444	6658.655435393557	2.788489351413
0	1451	6675.938515556231	17.283080162674
0	1452	6682.165653118767	6.227137562536
0	1453	6684.26270285278	2.097049734013
0	1454	6690.478444541404	6.215741688624
0	1455	6696.24701183815	5.768567296746
0	1462	6721.856484898876	25.609473060726
0	1465	6732.035996632796	10.17951173392
0	1467	6734.372951743546	2.33695511075
0	1468	6737.139133275089	2.766181531543
0	1469	6738.411438802624	1.272305527535
0	1473	6747.814822689845	9.403383887221
0	1474	6756.251123165586	8.436300475741
0	1475	6761.45638644455	5.205263278964
0	1478	6764.953555488512	3.497169043962
0	1483	6785.337910089006	20.384354600494
0	1484	6788.256685642321	2.918775553315
0	1493	6833.326363864332	45.069678222011
0	1497	6852.17567587274	18.849312008408
0	1499	6856.367008659011	4.191332786271
0	1502	6864.65059274038	8.283584081369
0	1504	6873.537131485511	8.886538745131
0	1505	6881.832547729576	8.295416244065
0	1508	6887.20780161957	5.375253889994
0	1519	6940.881323350778	53.673521731208
0	1520	6941.440788713956	0.559465363178
0	1521	6948.562491357841	7.121702643885
0	1522	6957.475751307647	8.913259949806
0	1529	6984.088263319235	26.612512011588
0	1536	7012.194648412853	28.106385093618
0	1543	7044.143544222532	31.948895809679
0	1546	7063.331428557666	19.187884335134
0	1554	7100.594729212729	37.263300655063
0	1557	7104.454793069565	3.860063856836
0	1559	7126.490120545556	22.035327475991
0	1563	7131.111063694959	4.620943149403
0	1564	7132.504040475145	1.392976780186
0	1567	7139.08886494464	6.584824469495
0	1569	7148.024412476144	8.935547531504
0	1581	7210.9269696957	62.902557219556
0	1583	7226.594795013595	15.667825317895
0	1589	7247.993592316178	21.398797302583
0	1590	7248.009997977904	0.016405661726
0	1595	7265.443507029567	17.433509051663
0	1596	7266.923083409915	1.479576380348
0	1599	7284.269472006115	17.3463885962
0	1606	7320.973570268646	36.704098262531
0	1611	7341.400385481372	20.426815212726
0	1618	7364.315637594256	22.915252112884
0	1623	7395.181507074455	30.865869480199
0	1626	7407.786017108992	12.604510034537
0	1627	7411.662590882437	3.876573773445
0	1634	7442.255689389276	30.593098506839
0	1635	7447.16766733214	4.911977942864
0	1642	7472.397809134803	25.230141802663
0	1648	7497.687705662107	25.289896527304
0	1650	7515.349212799545	17.661507137438
0	1657	7552.304848767404	36.955635967859
0	1664	7579.804116302883	27.499267535479
0	1665	7587.224306360882	7.420190057999
0	1669	7601.724790318789	14.500483957907
0	1670	7604.452133261746	2.727342942957
0	1685	7680.157310890019	75.705177628273
0	1689	7689.417469478357	9.260158588338
0	1697	7731.906566533399	42.489097055042
0	1704	7760.151885365671	28.245318832272
0	1705	7761.069976909239	0.918091543568
0	1706	7775.77956789593	14.709590986691
0	1707	7777.192926500414	1.413358604484
0	1708	7782.357991421696	5.165064921282
0	1717	7819.438723307608	37.080731885912
0	1722	7833.082605963516	13.643882655908
0	1723	7839.431977729988	6.349371766472
0	1724	7839.707878343892	0.275900613904
0	1731	7866.421660318213	26.713781974321
0	1735	7889.748876444771	23.327216126558
0	1738	7898.050645713022	8.301769268251
0	1745	7936.406745827948	38.356100114926
0	1753	7973.537505334304	37.130759506356
0	1754	7976.276862793898	2.739357459594
0	1755	7979.158077430827	2.881214636929
0	1765	8030.264714507632	51.106637076805
0	1766	8033.922408599981	3.657694092349
0	1769	8039.640748488322	5.718339888341
0	1774	8064.706743537595	25.065995049273
0	1775	8068.602241360681	3.895497823086
0	1778	8078.638241440456	10.036000079775
0	1783	8109.231653067017	30.593411626561
0	1801	8187.221974743746	77.990321676729
0	1803	8205.723140373524	18.501165629778
0	1810	8244.773673808003	39.050533434479
0	1816	8254.60224377143	9.828569963427
0	1824	8314.495283463333	59.893039691903
0	1827	8316.224248510094	1.728965046761
0	1831	8326.633996343535	10.409747833441
0	1833	8333.695943343976	7.061947000441
0	1834	8339.572406768411	5.876463424435
0	1840	8365.901342465197	26.328935696786
0	1844	8384.707161440936	18.805818975739
0	1846	8390.133620176652	5.426458735716
0	1856	8440.307967085495	50.174346908843
0	1859	8447.95678585493	7.648818769435
0	1863	8474.78416753565	26.82738168072
0	1868	8484.436981010156	9.652813474506
0	1869	8493.455186920759	9.018205910603
0	1870	8506.560825427167	13.105638506408
0	1877	8529.366131712379	22.805306285212
0	1880	8547.100568643083	17.734436930704
0	1885	8564.678361548704	17.577792905621
0	1888	8580.065154139182	15.386792590478
0	1893	8603.505846284343	23.440692145161
0	1900	8632.172769462181	28.666923177838
0	1901	8633.377948351859	1.205178889678
0	1902	8637.864443734444	4.486495382585
0	1908	8653.186051312828	15.321607578384
0	1913	8684.889423177571	31.703371864743
0	1917	8707.258418612653	22.368995435082
0	1921	8721.11659852546	13.858179912807
0	1924	8728.236591310028	7.119992784568
0	1929	8748.508047348551	20.271456038523
0	1932	8768.445853412666	19.937806064115
0	1934	8775.186510609582	6.740657196916
0	1935	8777.556687209753	2.370176600171
0	1938	8780.09465101162	2.537963801867
0	1940	8783.190897771255	3.096246759635
0	1944	8811.881822607415	28.69092483616
0	1950	8835.911729638127	24.029907030712
0	1954	8845.464404807611	9.552675169484
0	1956	8851.982868061681	6.51846325407
0	1957	8865.981836806294	13.998968744613
0	1958	8867.140882942798	1.159046136504
0	1965	8882.240478032711	15.099595089913
0	1966	8887.570062856202	5.329584823491
0	1967	8890.256812638097	2.686749781895
0	1968	8902.237031585625	11.980218947528
0	1975	8941.363702777073	39.126671191448
0	1982	8954.868718358961	13.505015581888
0	1983	8959.127152743239	4.258434384278
0	1986	8978.767710911624	19.640558168385
0	1991	9010.739461726508	31.971750814884
0	2004	9064.61912639669	53.879664670182
0	2005	9065.933105420752	1.313979024062
0	2006	9067.943262199128	2.010156778376
0	2013	9101.675882935864	33.732620736736
0	2017	9117.084814360548	15.408931424684
0	2021	9127.969313704424	10.884499343876
0	2022	9141.639497017015	13.670183312591
0	2029	9175.022745798839	33.383248781824
0	2033	9182.440570581036	7.417824782197
0	2037	9198.278658351956	15.83808777092
0	2038	9202.992873821745	4.714215469789
0	2039	9207.709303131749	4.716429310004
0	2043	9226.829348937206	19.120045805457
0	2047	9241.339553302352	14.510204365146
0	2048	9241.920515100069	0.580961797717
0	2052	9256.304516709789	14.38400160972
0	2053	9262.095007579634	5.790490869845
0	2060	9290.884899712473	28.789892132839
0	2061	9291.94487529714	1.059975584667
0	2067	9309.182029203927	17.237153906787
0	2069	9322.037737126949	12.855707923022
0	2070	9327.510484342613	5.472747215664
0	2073	9338.236353759485	10.725869416872
0	2078	9348.033640635408	9.797286875923
0	2079	9349.322606828981	1.288966193573
0	2086	9390.943634774223	41.621027945242
0	2087	9393.89282194515	2.949187170927
0	2088	9397.411498320769	3.518676375619
0	2095	9431.398653747233	33.987155426464
0	2102	9461.740483352928	30.341829605695
0	2108	9481.414329572874	19.673846219946
0	2113	9512.13548683454	30.721157261666
0	2114	9513.881970050463	1.746483215923
0	2120	9541.289642193034	27.407672142571
0	2124	9554.868784969726	13.579142776692
0	2129	9578.905270456762	24.036485487036
0	2130	9582.378714604762	3.473444148
0	2133	9590.632830547014	8.254115942252
0	2135	9597.400442506619	6.767611959605
0	2136	9604.11681582756	6.716373320941
0	2142	9627.781228788829	23.664412961269
0	2147	9650.707631677906	22.926402889077
0	2153	9672.663912315918	21.956280638012
0	2161	9713.02392069164	40.360008375722
0	2168	9749.842263010932	36.818342319292
0	2169	9758.427258811126	8.584995800194
0	2174	9772.362931328127	13.935672517001
0	2177	9781.733904218488	9.370972890361
0	2178	9786.005994730762	4.272090512274
0	2179	9800.229195644407	14.223200913645
0	2186	9830.888947821549	30.659752177142
0	2189	9837.147048832395	6.258101010846
0	2193	9839.535528438525	2.38847960613
0	2201	9888.662774012392	49.127245573867
0	2211	9943.952372875062	55.28959886267
0	2221	9990.988967117046	47.036594241984
0	2222	9999.451894353297	8.462927236251
0	2223	9999.568274392575	0.116380039278
0	2224	9999.591353077636	0.023078685061
0	2231	10031.778846414978	32.187493337342
0	2241	10089.785809875955	58.006963460977
0	2244	10091.23079327937	1.444983403415
0	2249	10116.650725626122	25.419932346752
0	2255	10133.898330818123	17.247605192001
0	2259	10164.098684030976	30.200353212853
0	2264	10176.529223785514	12.430539754538
0	2269	10200.69519633215	24.165972546636
0	2272	10217.699658234611	17.004461902461
0	2273	10219.029500879881	1.32984264527
0	2274	10231.387642271373	12.358141391492
0	2287	10297.371226863365	65.983584591992
0	2291	10304.767133761978	7.395906898613
0	2298	10342.680944468081	37.913810706103
0	2304	10366.55351388637	23.872569418289
0	2312	10405.025248374155	38.471734487785
0	2313	10405.471903192439	0.446654818284
0	2317	10422.570435488543	17.098532296104
0	2321	10450.871793012173	28.30135752363
0	2325	10463.243924817689	12.372131805516
0	2329	10482.707066510901	19.463141693212
0	2335	10500.821830681304	18.114764170403
0	2337	10516.397367823357	15.575537142053
0	2338	10520.619589066977	4.22222124362
0	2341	10528.326351533955	7.706762466978
0	2346	10539.499878586833	11.173527052878
0	2347	10544.759970091745	5.260091504912
0	2350	10562.234741930511	17.474771838766
0	2355	10569.197790988633	6.963049058122
0	2356	10584.918055773086	15.720264784453
0	2357	10588.853054353383	3.934998580297
0	2358	10591.768462827274	2.915408473891
0	2365	10613.909916966672	22.141454139398
0	2366	10616.132370678691	2.222453712019
0	2367	10619.723537149073	3.591166470382
0	2383	10698.276983597396	78.553446448323
0	2384	10703.375693716936	5.09871011954
0	2388	10714.904965367452	11.529271650516
0	2391	10730.364869118628	15.459903751176
0	2392	10731.166570999104	0.801701880476
0	2397	10745.649189761467	14.482618762363
0	2398	10756.494237038287	10.84504727682
0	2402	10764.898729399556	8.404492361269
0	2403	10766.621149705382	1.722420305826
0	2404	10773.836146558272	7.21499685289
0	2411	10802.52705323783	28.690906679558
0	2412	10807.085388461598	4.558335223768
0	2416	10825.13350211477	18.048113653172
0	2417	10825.616226793814	0.482724679044
0	2424	10859.700777788795	34.084550994981
0	2425	10860.186062701661	0.485284912866
0	2435	10900.444774003555	40.258711301894
0	2439	10927.075761479395	26.63098747584
0	2443	10953.257379383468	26.181617904073
0	2450	10966.154252546202	12.896873162734
0	2451	10974.289623926084	8.135371379882
0	2452	10976.244674097458	1.955050171374
0	2453	10980.868090379125	4.623416281667
0	2460	11014.31215935248	33.444068973355
0	2466	11030.715500287536	16.403340935056
0	2468	11048.597387469232	17.881887181696
0	2481	11120.97616408464	72.378776615408
0	2485	11134.141427648447	13.165263563807
0	2489	11152.036339149668	17.894911501221
0	2493	11163.427792095302	11.391452945634
0	2496	11176.670916449217	13.243124353915
0	2498	11177.71311308731	1.042196638093
0	2502	11199.933629992182	22.220516904872
0	2505	11209.789754571745	9.856124579563
0	2507	11220.820299774395	11.03054520265
0	2510	11225.955109930068	5.134810155673
0	2518	11261.697687907324	35.742577977256
0	2521	11281.564933311892	19.867245404568
0	2528	11318.673629197063	37.108695885171
0	2530	11321.457964330197	2.784335133134
0	2534	11330.556995296714	9.099030966517
0	2537	11349.483438727294	18.92644343058
0	2538	11351.986065560944	2.50262683365
0	2543	11374.676862524103	22.690796963159
0	2550	11410.135303665717	35.458441141614
0	2557	11429.993347336528	19.858043670811
0	2558	11450.919171376098	20.92582403957
0	2565	11467.929696705119	17.010525329021
0	2568	11488.927215567536	20.997518862417
0	2576	11524.112397915401	35.185182347865
0	2580	11546.122388194404	22.009990279003
0	2586	11564.068451589079	17.946063394675
0	2588	11568.380689932589	4.31223834351
0	2589	11571.176174881977	2.795484949388
0	2593	11594.388220399862	23.212045517885
0	2597	11618.820752548239	24.432532148377
0	2604	11649.536657833305	30.715905285066
0	2608	11667.432582099739	17.895924266434
0	2611	11673.442270063455	6.009687963716
0	2622	11724.569147871421	51.126877807966
0	2629	11764.742853584047	40.173705712626
0	2630	11765.61993990761	0.877086323563
0	2636	11788.485579421941	22.865639514331
0	2638	11794.229538194212	5.743958772271
0	2639	11794.498239863701	0.268701669489
0	2652	11863.727166996084	69.228927132383
0	2659	11913.727095227996	49.999928231912
0	2664	11947.688235162853	33.961139934857
0	2667	11980.554650038707	32.866414875854
0	2670	12010.378412762743	29.823762724036
0	2671	12011.715437216309	1.337024453566
0	2674	12015.529514446543	3.814077230234
0	2677	12018.536993601794	3.007479155251
0	2684	12054.828759380913	36.291765779119
0	2689	12105.14592555989	50.317166178977
0	2692	12126.809711854865	21.663786294975
0	2694	12131.901216481804	5.091504626939
0	2699	12173.45457583324	41.553359351436
0	2702	12187.385186404601	13.930610571361
0	2704	12204.633140100616	17.247953696015
0	2707	12207.87074015575	3.237600055134
0	2709	12210.673581146961	2.802840991211
0	2710	12212.127129752669	1.453548605708
0	2711	12214.467090236863	2.339960484194
0	2720	12259.565816970717	45.098726733854
0	2724	12272.595393679831	13.029576709114
0	2726	12276.943785513491	4.34839183366
0	2727	12280.726475602302	3.782690088811
0	2728	12284.099721171488	3.373245569186
0	2731	12296.340191446918	12.24047027543
0	2733	12305.315163608633	8.974972161715
0	2737	12326.909736371125	21.594572762492
0	2750	12376.784472735278	49.874736364153
0	2755	12407.943697089694	31.159224354416
0	2758	12434.308403458027	26.364706368333
0	2764	12442.675732387549	8.367328929522
0	2772	12494.066218029927	51.390485642378
0	2777	12514.75763290958	20.691414879653
0	2778	12517.676164014171	2.918531104591
0	2780	12527.5612667321	9.885102717929
0	2781	12529.480959924406	1.919693192306
0	2784	12538.791988877056	9.31102895265
0	2788	12551.03819682155	12.246207944494
0	2790	12557.66415820602	6.62596138447
0	2791	12558.302718799935	0.638560593915
0	2801	12614.794662000435	56.4919432005
0	2807	12635.953048030641	21.158386030206
0	2809	12652.987443207462	17.034395176821
0	2812	12661.30773840023	8.320295192768
0	2816	12670.131737526074	8.823999125844
0	2818	12682.344159201705	12.212421675631
0	2819	12689.960699410263	7.616540208558
0	2826	12707.127763270531	17.167063860268
0	2838	12771.281123150457	64.153359879926
0	2840	12778.722986284	7.441863133543
0	2843	12800.003710657166	21.280724373166
0	2852	12839.169157196286	39.16544653912
0	2854	12853.220919226455	14.051762030169
0	2859	12876.365753853877	23.144834627422
0	2860	12881.105805616879	4.740051763002
0	2862	12884.835240120566	3.729434503687
0	2863	12886.05185980543	1.216619684864
0	2864	12887.914675934407	1.862816128977
0	2865	12890.154595560584	2.239919626177
0	2872	12918.230985352895	28.076389792311
0	2876	12940.836647084479	22.605661731584
0	2879	12950.389739992612	9.553092908133
0	2884	12976.914616551258	26.524876558646
0	2885	12979.88397171565	2.969355164392
0	2886	12982.581975994306	2.698004278656
0	2899	13043.40024631019	60.818270315884
0	2900	13045.850902032269	2.450655722079
0	2901	13051.782631226655	5.931729194386
0	2904	13060.705136410928	8.922505184273
0	2909	13083.211337155212	22.506200744284
0	2916	13098.727403092154	15.516065936942
0	2917	13126.333282085553	27.605878993399
0	2924	13153.625984469211	27.292702383658
0	2925	13156.503309743291	2.87732527408
0	2931	13165.514092739979	9.010782996688
0	2933	13177.152400440827	11.638307700848
0	2940	13208.92670424564	31.774303804813
0	2944	13229.61840892031	20.69170467467
0	2957	13296.885084915504	67.266675995194
0	2960	13308.28310844254	11.398023527036
0	2962	13325.37603120137	17.09292275883
0	2969	13350.394080725129	25.018049523759
0	2973	13368.855659494638	18.461578769509
0	2979	13423.8885099132	55.032850418562
0	2982	13507.682801511658	83.794291598458
0	2984	13521.72472820072	14.041926689062
0	2986	13530.327505513924	8.602777313204
0	2990	13546.805435265297	16.477929751373
0	2991	13547.523188521742	0.717753256445
0	3000	13611.611587332203	64.088398810461
0	3001	13612.040079809291	0.428492477088
0	3004	13626.277535675956	14.237455866665
0	3005	13626.528646841968	0.251111166012
0	3006	13630.287108460558	3.75846161859
0	3013	13660.373237495604	30.086129035046
0	3014	13666.070175792239	5.696938296635
0	3015	13670.026930874154	3.956755081915
0	3022	13689.455102898726	19.428172024572
0	3023	13695.056389422456	5.60128652373
0	3029	13721.931203466151	26.874814043695
0	3034	13747.681936864875	25.750733398724
0	3046	13838.959953386802	91.278016521927
0	3048	13847.018741323227	8.058787936425
0	3050	13869.624183862018	22.605442538791
0	3055	13888.722654199162	19.098470337144
0	3058	13910.979602415156	22.256948215994
0	3061	13928.559751167591	17.580148752435
0	3063	13935.52466224678	6.964911079189
0	3064	13937.28973619535	1.76507394857
0	3065	13940.338801542204	3.049065346854
0	3069	13952.226589307284	11.88778776508
0	3070	13961.336966106651	9.110376799367
0	3073	13969.772280410128	8.435314303477
0	3080	14003.015096094731	33.242815684603
0	3085	14024.487880505323	21.472784410592
0	3086	14028.602014346686	4.114133841363
0	3089	14039.856506339199	11.254491992513
0	3093	14044.263763031251	4.407256692052
0	3101	14079.58421204622	35.320449014969
0	3102	14089.348480752262	9.764268706042
0	3103	14098.030650094376	8.682169342114
0	3104	14107.285167512848	9.254517418472
0	3124	14211.48953891589	104.20437140304
0	3127	14236.183436188044	24.693897272154
0	3130	14259.591531801633	23.408095613589
0	3132	14269.670946792412	10.079414990779
0	3138	14314.376640088623	44.705693296211
0	3140	14321.375225501313	6.99858541269
0	3141	14323.096578461164	1.721352959851
0	3143	14339.366014991391	16.269436530227
0	3144	14340.562118721365	1.196103729974
0	3145	14342.889082516945	2.32696379558
0	3159	14415.408706718916	72.519624201971
0	3160	14416.331525637601	0.922818918685
0	3166	14455.8414225109	39.509896873299
0	3169	14476.77011764757	20.92869513667
0	3171	14488.454573514661	11.684455867091
0	3174	14489.426743963866	0.972170449205
0	3176	14512.587151538611	23.160407574745
0	3180	14520.492411843075	7.905260304464
0	3184	14533.762572499268	13.270160656193
0	3185	14536.458869807502	2.696297308234
0	3196	14613.761600872206	77.302731064704
0	3197	14616.63980045111	2.878199578904
0	3201	14622.671810504589	6.032010053479
0	3203	14640.685217592807	18.013407088218
0	3212	14763.975325188104	123.2901075953
0	3214	14792.506827728228	28.531502540124
0	3217	14807.339316893304	14.832489165076
0	3220	14833.354823110225	26.015506216921
0	3221	14837.79940834022	4.444585229995
0	3225	14841.789643326375	3.990234986155
0	3227	14844.69346724326	2.903823916885
0	3228	14865.039823358587	20.346356115327
0	3239	14927.274781285405	62.234957926818
0	3241	14937.364602788562	10.089821503157
0	3245	14948.69508170255	11.330478913988
0	3248	14960.511009274534	11.815927571984
0	3254	15005.851611645752	45.340602371218
0	3257	15028.184103843099	22.332492197347
0	3261	15077.224208314879	49.04010447178
0	3263	15090.968369685048	13.744161370169
0	3266	15116.850473326407	25.882103641359
0	3268	15124.8490068948	7.998533568393
0	3271	15131.816056995757	6.967050100957
0	3278	15199.44798244855	67.631925452793
0	3280	15207.171127127287	7.723144678737
0	3284	15269.079110752426	61.907983625139
0	3286	15273.95412946199	4.875018709564
0	3288	15290.88617478192	16.93204531993
0	3292	15308.532642552678	17.646467770758
0	3296	15327.573058890031	19.040416337353
0	3300	15343.340506391484	15.767447501453
0	3306	15409.986969327313	66.646462935829
0	3308	15414.018785226191	4.031815898878
0	3309	15418.095928012649	4.077142786458
0	3311	15424.915281092242	6.819353079593
0	3312	15433.272242911615	8.356961819373
0	3313	15436.380637508605	3.10839459699
0	3322	15476.312903971247	39.932266462642
0	3326	15488.159986697643	11.847082726396
0	3327	15488.957447039873	0.79746034223
0	3334	15527.580976322273	38.6235292824
0	3339	15551.495934297189	23.914957974916
0	3340	15557.342618159142	5.846683861953
0	3344	15574.795945337368	17.453327178226
0	3350	15597.690739902713	22.894794565345
0	3351	15601.399294971124	3.708555068411
0	3356	15625.261615409011	23.862320437887
0	3357	15630.326778870851	5.06516346184
0	3364	15666.130775029487	35.803996158636
0	3367	15670.189536496945	4.058761467458
0	3372	15692.853185620052	22.663649123107
0	3373	15696.963477854094	4.110292234042
0	3374	15697.762679288976	0.799201434882
0	3375	15703.73964777171	5.976968482734
0	3382	15712.583212735332	8.843564963622
0	3389	15746.699551704662	34.11633896933
0	3390	15749.389998808782	2.69044710412
0	3391	15759.580560080285	10.190561271503
0	3392	15764.899564665952	5.319004585667
0	3408	15846.359544041641	81.459979375689
0	3412	15861.820232381453	15.460688339812
0	3418	15886.826370565144	25.006138183691
0	3422	15904.995224823441	18.168854258297
0	3426	15921.549228728687	16.554003905246
0	3428	15934.2958477882	12.746619059513
0	3431	15937.301971647999	3.006123859799
0	3433	15947.006474822461	9.704503174462
0	3440	15974.402456666089	27.395981843628
0	3441	15982.838891557998	8.436434891909
0	3442	15991.555686352789	8.716794794791
0	3446	16002.535126524442	10.979440171653
0	3452	16028.916659084573	26.381532560131
0	3463	16075.656824569292	46.740165484719
0	3464	16087.843970198932	12.18714562964
0	3471	16113.4293599082	25.585389709268
0	3478	16154.046325504607	40.616965596407
0	3479	16165.337550371381	11.291224866774
0	3483	16171.170639888257	5.833089516876
0	3487	16179.116603435429	7.945963547172
0	3488	16180.051765745855	0.935162310426
0	3489	16190.04142842265	9.989662676795
0	3503	16275.706105537505	85.664677114855
0	3506	16299.462567117956	23.756461580451
0	3510	16355.90764543909	56.445078321134
0	3512	16382.707952298747	26.800306859657
0	3513	16386.220462540057	3.51251024131
0	3517	16390.069812503342	3.849349963285
0	3519	16398.763431402039	8.693618898697
0	3528	16501.643444067817	102.88001266578
0	3529	16503.642667204406	1.999223136589
0	3532	16531.498406254323	27.855739049917
0	3537	16540.631697718398	9.133291464075
0	3539	16550.397347973539	9.765650255141
0	3540	16565.77411995408	15.376771980541
0	3544	16574.07715852221	8.30303856813
0	3545	16575.456080653947	1.378922131737
0	3549	16590.496423987215	15.040343333268
0	3553	16605.433493276743	14.937069289528
0	3556	16614.351712783347	8.918219506604
0	3561	16644.801326888666	30.449614105319
0	3567	16668.747783852571	23.946456963905
0	3569	16677.689766469381	8.94198261681
0	3576	16712.812195968315	35.122429498934
0	3580	16732.266522700337	19.454326732022
0	3584	16750.102801839516	17.836279139179
0	3590	16768.630563707884	18.527761868368
0	3592	16771.08477068971	2.454206981826
0	3593	16787.789841650542	16.705070960832
0	3596	16794.738173957716	6.948332307174
0	3601	16812.551063064318	17.812889106602
0	3602	16823.459489856342	10.908426792024
0	3603	16825.862461590411	2.402971734069
0	3610	16848.424303829128	22.561842238717
0	3611	16865.30847154976	16.884167720632
0	3617	16870.528887166972	5.220415617212
0	3625	16925.945057384032	55.41617021706
0	3628	16937.379555909034	11.434498525002
0	3633	16957.388880241336	20.009324332302
0	3634	16959.534530315665	2.145650074329
0	3641	16983.16453815209	23.630007836425
0	3642	16986.159719792151	2.995181640061
0	3645	17000.362779092434	14.203059300283
0	3647	17004.391988172775	4.029209080341
0	3648	17007.981603531324	3.589615358549
0	3654	17036.268206360434	28.28660282911
0	3656	17040.443537752224	4.17533139179
0	3660	17055.334206638978	14.890668886754
0	3673	17127.420985197906	72.086778558928
0	3677	17143.874083745998	16.453098548092
0	3678	17150.414878312585	6.540794566587
0	3679	17152.846901782498	2.432023469913
0	3686	17179.992892395974	27.145990613476
0	3690	17197.436777878221	17.443885482247
0	3694	17204.123269909482	6.686492031261
0	3695	17215.356299852595	11.233029943113
0	3702	17245.53458438194	30.178284529345
0	3709	17278.578952864024	33.044368482084
0	3710	17289.729229410669	11.150276546645
0	3711	17295.291528779009	5.56229936834
0	3718	17307.193735690844	11.902206911835
0	3719	17323.789238415768	16.595502724924
0	3722	17331.626451403684	7.837212987916
0	3732	17372.829617778073	41.203166374389
0	3734	17378.932734385074	6.103116607001
0	3735	17389.659586854555	10.726852469481
0	3738	17399.520500705496	9.860913850941
0	3740	17403.592523589609	4.072022884113
0	3743	17413.967579559714	10.375055970105
0	3751	17453.752180682205	39.784601122491
0	3758	17495.477931650195	41.72575096799
0	3765	17524.765819978811	29.287888328616
0	3771	17555.028444584792	30.262624605981
0	3776	17568.209035222151	13.180590637359
0	3777	17571.422288410276	3.213253188125
0	3778	17572.208263806477	0.785975396201
0	3779	17586.087362039976	13.879098233499
0	3782	17590.365763133085	4.278401093109
0	3787	17612.066651300938	21.700888167853
0	3788	17624.931165599613	12.864514298675
0	3795	17638.678786933091	13.747621333478
0	3796	17642.877081421039	4.198294487948
0	3797	17651.820633210931	8.943551789892
0	3802	17662.723931909199	10.903298698268
0	3805	17671.1763250173	8.452393108101
0	3806	17682.146264269954	10.969939252654
0	3809	17696.97646259066	14.830198320706
0	3820	17742.134154606492	45.157692015832
0	3821	17752.471845984275	10.337691377783
0	3828	17778.099029628006	25.627183643731
0	3829	17783.213108823496	5.11407919549
0	3830	17789.551432331629	6.338323508133
0	3834	17803.365061363745	13.813629032116
0	3837	17807.090415797267	3.725354433522
0	3839	17824.678846341974	17.588430544707
0	3846	17855.863514478787	31.184668136813
0	3847	17856.435972789678	0.572458310891
0	3848	17857.524825021254	1.088852231576
0	3852	17863.834323134777	6.309498113523
0	3853	17870.647343163503	6.813020028726
0	3857	17882.761088952087	12.113745788584
0	3867	17927.889247957013	45.128159004926
0	3876	17987.081605786155	59.192357829142
0	3887	18052.493868595538	65.412262809383
0	3894	18085.340756385755	32.846887790217
0	3907	18148.190109323195	62.84935293744
0	3908	18151.090803755081	2.900694431886
0	3909	18151.423801239809	0.332997484728
0	3912	18156.351302362616	4.927501122807
0	3914	18163.788535087126	7.43723272451
0	3918	18176.417838412562	12.629303325436
0	3932	18262.075103000199	85.657264587637
0	3935	18283.491901741722	21.416798741523
0	3937	18292.560951342572	9.06904960085
0	3943	18353.971974633613	61.411023291041
0	3945	18361.651818411725	7.679843778112
0	3946	18365.400247891695	3.74842947997
0	3948	18372.52731610181	7.127068210115
0	3949	18376.753320094727	4.226003992917
0	3953	18393.249660680933	16.496340586206
0	3956	18401.972113590309	8.722452909376
0	3960	18422.173380569118	20.201266978809
0	3965	18441.408538828011	19.235158258893
0	3966	18445.672097070032	4.263558242021
0	3976	18490.77750394164	45.105406871608
0	3979	18505.715981288212	14.938477346572
0	3981	18512.441145865259	6.725164577047
0	3985	18540.396314390495	27.955168525236
0	3992	18562.540727930704	22.144413540209
0	3993	18571.450589095428	8.909861164724
0	4004	18639.072111806665	67.621522711237
0	4007	18660.885929621189	21.813817814524
0	4011	18715.941488288883	55.055558667694
0	4013	18737.900343948003	21.95885565912
0	4016	18752.343210703976	14.442866755973
0	4018	18755.782349015904	3.439138311928
0	4023	18785.849258818424	30.06690980252
0	4026	18812.847671060983	26.998412242559
0	4027	18813.760339912654	0.912668851671
0	4032	18836.179829045069	22.419489132415
0	4037	18859.713874172051	23.534045126982
0	4039	18863.301068993525	3.587194821474
0	4042	18888.26991512664	24.968846133115
0	4049	18947.890100211154	59.620185084514
0	4050	18948.636024870307	0.745924659153
0	4053	18963.84392734056	15.207902470253
0	4054	18973.93689211083	10.09296477027
0	4061	18995.77686706327	21.83997495244
0	4062	19001.758326843491	5.981459780221
0	4069	19046.143084682941	44.38475783945
0	4074	19076.882693866023	30.739609183082
0	4076	19082.446702208934	5.564008342911
0	4078	19084.196236612911	1.749534403977
0	4080	19089.240506095044	5.044269482133
0	4081	19092.35504186012	3.114535765076
0	4082	19109.375409986118	17.020368125998
0	4095	19174.938670658572	65.563260672454
0	4100	19202.214078194037	27.275407535465
0	4103	19213.668781877862	11.454703683825
0	4105	19230.233171957475	16.564390079613
0	4110	19253.07906504993	22.845893092455
0	4112	19267.419379998626	14.340314948696
0	4117	19304.555544941689	37.136164943063
0	4121	19358.472331676443	53.916786734754
0	4123	19380.257413060968	21.785081384525
0	4127	19433.545897552974	53.288484492006
0	4129	19440.014606128546	6.468708575572
0	4131	19455.906729108249	15.892122979703
0	4136	19478.805812066994	22.899082958745
0	4139	19504.862304984312	26.056492917318
0	4142	19519.910521843002	15.04821685869
0	4145	19549.693232290718	29.782710447716
0	4148	19573.946095680917	24.252863390199
0	4149	19578.820663175715	4.874567494798
0	4156	19628.329464796633	49.508801620918
0	4158	19642.69796553174	14.368500735107
0	4161	19677.795521410158	35.097555878418
0	4165	19737.377054689787	59.581533279629
0	4167	19747.266955921144	9.889901231357
0	4170	19776.321080495787	29.054124574643
0	4173	19784.621198426252	8.300117930465
0	4177	19824.395225788774	39.774027362522
0	4179	19852.788275973013	28.393050184239
0	4180	19857.214561570951	4.426285597938
0	4185	19875.35782210259	18.143260531639
0	4190	19909.682313503137	34.324491400547
0	4192	19913.033627320235	3.351313817098
0	4197	19953.457343626894	40.423716306659
0	4200	19964.937673556073	11.480329929179
0	4202	19978.551943604025	13.614270047952
0	4207	20012.285356800611	33.733413196586
0	4210	20027.963554314885	15.678197514274
0	4212	20041.058684619664	13.095130304779
0	4217	20065.973071453921	24.914386834257
0	4218	20068.304940165802	2.331868711881
0	4220	20069.032052463255	0.727112297453
0	4224	20093.064261833911	24.032209370656
0	4232	20132.046656324724	38.982394490813
0	4234	20139.355719916265	7.309063591541
0	4237	20157.166243768555	17.81052385229
0	4242	20173.387692995856	16.221449227301
0	4247	20203.649124185232	30.261431189376
0	4249	20214.368291269903	10.719167084671
0	4255	20266.434419442337	52.066128172434
0	4257	20273.668891985956	7.234472543619
0	4258	20277.734982734059	4.066090748103
0	4260	20281.002508588358	3.267525854299
0	4261	20283.378523839262	2.376015250904
0	4272	20354.584842049358	71.206318210096
0	4275	20367.658219969293	13.073377919935
0	4278	20395.920979550998	28.262759581705
0	4281	20421.635931122229	25.714951571231
0	4283	20427.440594005303	5.804662883074
0	4287	20451.742460859751	24.301866854448
0	4293	20596.135594323208	144.39313346346
0	4296	20629.56327745231	33.427683129102
0	4298	20644.840208852	15.27693139969
0	4300	20659.56521185858	14.72500300658
0	4301	20661.437809702931	1.872597844351
0	4310	20802.521742026643	141.08393232371
0	4312	20818.846205185544	16.324463158901
0	4314	20828.297183803247	9.450978617703
0	4318	20838.832103378368	10.534919575121
0	4323	20873.647019886381	34.814916508013
0	4325	20886.043191856948	12.396171970567
0	4330	20911.505168295336	25.461976438388
0	4332	20916.162057386928	4.656889091592
0	4335	20928.454508146775	12.292450759847
0	4336	20932.023018686068	3.568510539293
0	4338	20937.488509516673	5.465490830605
0	4339	20940.848522606399	3.360013089726
0	4340	20940.862064208464	0.013541602065
0	4350	20980.045895372157	39.183831163693
0	4351	20986.231907407399	6.186012035242
0	4352	20991.471708634495	5.239801227096
0	4355	21000.595251424424	9.123542789929
0	4360	21011.236542035992	10.641290611568
0	4361	21011.670976113021	0.434434077029
0	4362	21019.89007614345	8.219100030429
0	4369	21060.395807230791	40.505731087341
0	4376	21091.602156262187	31.206349031396
0	4377	21097.607527713042	6.005371450855
0	4382	21109.428852695578	11.821324982536
0	4385	21114.652741321404	5.223888625826
0	4386	21135.763716685935	21.110975364531
0	4387	21136.96418102121	1.200464335275
0	4399	21179.849989433178	42.885808411968
0	4401	21187.763391457859	7.913402024681
0	4402	21191.560584660374	3.797193202515
0	4409	21226.224772298725	34.664187638351
0	4413	21245.717442599639	19.492670300914
0	4420	21278.833199782563	33.115757182924
0	4421	21278.989298290492	0.156098507929
0	4425	21302.075996196066	23.086697905574
0	4431	21324.47496229984	22.398966103774
0	4436	21343.081182830838	18.606220530998
0	4442	21370.695671059545	27.614488228707
0	4444	21384.807114239632	14.111443180087
0	4461	21479.265318849503	94.458204609871
0	4462	21480.75418008146	1.488861231957
0	4468	21527.754505246136	47.000325164676
0	4471	21555.045640466193	27.291135220057
0	4472	21558.872242079112	3.826601612919
0	4477	21577.001240569737	18.128998490625
0	4478	21584.253873360945	7.252632791208
0	4479	21587.413813984851	3.159940623906
0	4486	21597.353163767112	9.939349782261
0	4493	21643.013564126243	45.660400359131
0	4494	21645.457268101118	2.443703974875
0	4497	21660.883236712594	15.425968611476
0	4502	21680.927137438011	20.043900725417
0	4503	21682.220623808067	1.293486370056
0	4510	21709.774571545992	27.553947737925
0	4511	21722.130915940628	12.356344394636
0	4514	21725.569327314396	3.438411373768
0	4515	21725.926789982073	0.357462667677
0	4519	21737.368211805886	11.441421823813
0	4521	21743.152679737156	5.78446793127
0	4522	21752.572095386995	9.419415649839
0	4526	21766.441745869334	13.869650482339
0	4529	21775.971765242437	9.530019373103
0	4531	21786.972694010186	11.000928767749
0	4535	21794.041606384076	7.06891237389
0	4536	21794.959929745461	0.918323361385
0	4542	21826.169751843883	31.209822098422
0	4543	21826.21615283294	0.046400989057
0	4548	21852.802116750946	26.585963918006
0	4557	21892.629065943753	39.826949192807
0	4559	21901.771746786773	9.14268084302
0	4566	21933.642036469938	31.870289683165
0	4567	21935.0586637094	1.416627239462
0	4573	21957.246180591002	22.187516881602
0	4581	22017.611965898278	60.365785307276
0	4586	22024.231548934239	6.619583035961
0	4588	22027.218556284973	2.987007350734
0	4590	22033.553789613866	6.335233328893
0	4591	22040.330509728602	6.776720114736
0	4592	22040.852764572874	0.522254844272
0	4593	22045.558533050402	4.705768477528
0	4597	22057.677754582943	12.119221532541
0	4600	22066.106607793831	8.428853210888
0	4602	22079.63382807416	13.527220280329
0	4609	22111.779678383078	32.145850308918
0	4616	22141.970455610891	30.190777227813
0	4623	22180.21578714876	38.245331537869
0	4627	22201.564226478014	21.348439329254
0	4630	22206.329672578501	4.765446100487
0	4635	22222.660054037736	16.330381459235
0	4636	22229.947602034741	7.287547997005
0	4649	22292.126158606266	62.178556571525
0	4650	22303.92867344996	11.802514843694
0	4657	22333.475258244608	29.546584794648
0	4664	22377.068119002583	43.592860757975
0	4669	22385.150699965532	8.082580962949
0	4672	22391.527411899715	6.376711934183
0	4676	22420.021204649822	28.493792750107
0	4680	22430.44940441327	10.428199763448
0	4681	22430.452902492009	0.003498078739
0	4682	22437.743305538247	7.290403046238
0	4685	22450.689989049065	12.946683510818
0	4690	22467.27146976362	16.581480714555
0	4694	22488.736750184211	21.465280420591
0	4698	22510.831284403957	22.094534219746
0	4699	22513.305551387483	2.474266983526
0	4705	22534.335865249065	21.030313861582
0	4710	22556.186441190757	21.850575941692
0	4711	22560.776824764339	4.590383573582
0	4714	22566.783320120981	6.006495356642
0	4718	22581.652215407028	14.868895286047
0	4735	22680.949856440805	99.297641033777
0	4739	22691.208131776323	10.258275335518
0	4740	22697.28195645652	6.073824680197
0	4753	22752.852736844427	55.570780387907
0	4754	22759.138192899155	6.285456054728
0	4755	22777.773584563647	18.635391664492
0	4762	22800.306960930003	22.533376366356
0	4768	22817.610259454078	17.303298524075
0	4770	22827.370011072404	9.759751618326
0	4771	22832.451797074625	5.081786002221
0	4772	22841.275542620009	8.823745545384
0	4779	22868.283648145925	27.008105525916
0	4780	22872.929557110685	4.64590896476
0	4783	22878.515925054717	5.586367944032
0	4788	22905.054430156211	26.538505101494
0	4791	22913.21521788349	8.160787727279
0	4792	22913.337955148025	0.122737264535
0	4794	22919.279236498245	5.94128135022
0	4795	22919.994771861981	0.715535363736
0	4798	22927.078140936928	7.083369074947
0	4800	22933.750049773724	6.671908836796
0	4810	22983.278553935697	49.528504161973
0	4811	22993.354267310189	10.075713374492
0	4815	23004.52432095234	11.170053642151
0	4819	23012.675185474429	8.150864522089
0	4820	23015.43479262159	2.759607147161
0	4821	23016.391223039928	0.956430418338
0	4822	23025.738513384101	9.347290344173
0	4828	23043.233819602683	17.495306218582
0	4832	23072.384010354892	29.150190752209
0	4837	23090.365570687474	17.981560332582
0	4844	23140.411112544038	50.045541856564
0	4854	23179.689586562799	39.278474018761
0	4857	23182.907350765891	3.217764203092
0	4859	23193.258147450873	10.350796684982
0	4871	23253.327127867201	60.068980416328
0	4876	23286.307539265186	32.980411397985
0	4879	23290.286645591742	3.979106326556
0	4880	23291.500761350742	1.214115759
0	4885	23315.447543550097	23.946782199355
0	4892	23343.374337476142	27.926793926045
0	4893	23352.878902488353	9.504565012211
0	4896	23366.769665246574	13.890762758221
0	4898	23370.705137839994	3.93547259342
0	4902	23387.5036802936	16.798542453606
0	4909	23418.432753601017	30.929073307417
0	4916	23445.924437294761	27.491683693744
0	4917	23453.441611414935	7.517174120174
0	4918	23458.670050769806	5.228439354871
0	4923	23472.524794159848	13.854743390042
0	4932	23513.8048547567	41.280060596852
0	4939	23553.383537805995	39.578683049295
0	4946	23591.255623368309	37.872085562314
0	4947	23595.876771958454	4.621148590145
0	4948	23597.114554994862	1.237783036408
0	4952	23607.742206664458	10.627651669596
0	4959	23639.554672850112	31.812466185654
0	4965	23669.22494987644	29.670277026328
0	4969	23693.005268571673	23.780318695233
0	4974	23708.711099720279	15.705831148606
0	4981	23741.068201373356	32.357101653077
0	4982	23751.784599449641	10.716398076285
0	4985	23762.157147737972	10.372548288331
0	4989	23769.422149662612	7.26500192464
0	4997	23805.651717381363	36.229567718751
0	4998	23809.075684790377	3.423967409014
0	4999	23818.641402969347	9.56571817897
0	5000	23826.070299572444	7.428896603097
0	5007	23859.18472661058	33.114427038136
0	5014	23886.202476382676	27.017749772096
0	5017	23899.167525604362	12.965049221686
0	5021	23903.458975278559	4.291449674197
0	5023	23911.709862481664	8.250887203105
0	5024	23927.737096702782	16.027234221118
0	5038	24002.53097202864	74.793875325858
0	5041	24014.327729686788	11.796757658148
0	5043	24024.58191425677	10.254184569982
0	5046	24037.984647129091	13.402732872321
0	5051	24067.500760488781	29.51611335969
0	5055	24078.952146403184	11.451385914403
0	5058	24088.886252031283	9.934105628099
0	5063	24112.118716956918	23.232464925635
0	5066	24123.781343037651	11.662626080733
0	5067	24126.697179398491	2.91583636084
0	5076	24180.363788068718	53.666608670227
0	5079	24197.62872280408	17.264934735362
0	5080	24198.813486865263	1.184764061183
0	5085	24228.727305665071	29.913818799808
0	5086	24232.420754876122	3.693449211051
0	5093	24253.911776613218	21.491021737096
0	5094	24270.425039912925	16.513263299707
0	5101	24291.038346838545	20.61330692562
0	5102	24304.506757024652	13.468410186107
0	5109	24318.859648923345	14.352891898693
0	5112	24342.581855682033	23.722206758688
0	5115	24346.360586101767	3.778730419734
0	5118	24356.745734284438	10.385148182671
0	5119	24373.0181632365	16.272428952062
0	5125	24382.379049759044	9.360886522544
0	5133	24424.135568250037	41.756518490993
0	5134	24441.549568262488	17.414000012451
0	5138	24450.698132048412	9.148563785924
0	5142	24476.073120489037	25.374988440625
0	5146	24480.057316488778	3.984195999741
0	5147	24486.436362958083	6.379046469305
0	5153	24510.12864941059	23.692286452507
0	5154	24511.84467001045	1.71602059986
0	5162	24549.516732063388	37.672062052938
0	5169	24591.642260244218	42.12552818083
0	5172	24595.324684727273	3.682424483055
0	5174	24605.963946307882	10.639261580609
0	5178	24615.450642345046	9.486696037164
0	5185	24654.544720943079	39.094078598033
0	5190	24675.952368827023	21.407647883944
0	5193	24704.938299609534	28.985930782511
0	5196	24740.666789641652	35.728490032118
0	5199	24753.072254314191	12.405464672539
0	5202	24776.631565161005	23.559310846814
0	5204	24779.995626618705	3.3640614577
0	5209	24818.064679925002	38.069053306297
0	5212	24835.226727050088	17.162047125086
0	5214	24845.87268861804	10.645961567952
0	5218	24856.803203396747	10.930514778707
0	5219	24869.014117861203	12.210914464456
0	5223	24878.724163147832	9.710045286629
0	5227	24904.54081749651	25.816654348678
0	5230	24909.074941652823	4.534124156313
0	5235	24938.768499904103	29.69355825128
0	5236	24940.105363335747	1.336863431644
0	5243	24963.553476088926	23.448112753179
0	5250	25008.549159116267	44.995683027341
0	5254	25019.152151731278	10.602992615011
0	5257	25031.951129106725	12.798977375447
0	5262	25067.383998690296	35.432869583571
0	5264	25076.621931468539	9.237932778243
0	5265	25079.369229476835	2.747298008296
0	5269	25097.022174423524	17.652944946689
0	5273	25104.547469169069	7.525294745545
0	5274	25117.929104651177	13.381635482108
0	5278	25133.880287979072	15.951183327895
0	5282	25154.768353420305	20.888065441233
0	5289	25179.42964155852	24.661288138215
0	5290	25184.988782146138	5.559140587618
0	5291	25185.63757610819	0.648793962052
0	5292	25189.800095255284	4.162519147094
0	5295	25196.908077266464	7.10798201118
0	5300	25222.701893767181	25.793816500717
0	5307	25238.406920282571	15.70502651539
0	5314	25288.17313668667	49.766216404099
0	5321	25328.86612202733	40.69298534066
0	5328	25348.312067840249	19.445945812919
0	5333	25386.452090528658	38.140022688409
0	5336	25409.912985130933	23.460894602275
0	5338	25414.54801059945	4.635025468517
0	5342	25430.211039088148	15.663028488698
0	5347	25473.224014637896	43.012975549748
0	5348	25473.316115227445	0.092100589549
0	5353	25492.118658772237	18.802543544792
0	5358	25517.595945335387	25.47728656315
0	5360	25537.483246275384	19.887300939997
0	5365	25579.277790405864	41.79454413048
0	5367	25581.722117990807	2.444327584943
0	5369	25583.454461645724	1.732343654917
0	5371	25600.650629937016	17.196168291292
0	5372	25610.56459962353	9.913969686514
0	5379	25628.236513110167	17.671913486637
0	5380	25634.26688037515	6.030367264983
0	5381	25640.027957747154	5.761077372004
0	5382	25644.679622829915	4.651665082761
0	5388	25657.598252749684	12.918629919769
0	5390	25670.163194583154	12.56494183347
0	5391	25670.96715302487	0.803958441716
0	5392	25678.816568002531	7.849414977661
0	5404	25730.630762981041	51.81419497851
0	5412	25769.766187100647	39.135424119606
0	5419	25807.290321288689	37.524134188042
0	5427	25846.167314824197	38.876993535508
0	5429	25852.525237369141	6.357922544944
0	5435	25931.712470504976	79.187233135835
0	5437	25940.055513344869	8.343042839893
0	5441	25982.801335525794	42.745822180925
0	5443	26003.491855622491	20.690520096697
0	5446	26032.609626571794	29.117770949303
0	5450	26116.146874105961	83.537247534167
0	5452	26141.186358598166	25.039484492205
0	5456	26180.489029996795	39.302671398629
0	5458	26185.270055038749	4.781025041954
0	5461	26213.460174590442	28.190119551693
0	5462	26216.171800519642	2.7116259292
0	5466	26224.551472447449	8.379671927807
0	5468	26228.079360817469	3.52788837002
0	5469	26246.306797227131	18.227436409662
0	5479	26282.879743795138	36.572946568007
0	5485	26335.716395226569	52.836651431431
0	5487	26351.871193540101	16.154798313532
0	5488	26355.801933065483	3.930739525382
0	5492	26369.74664590462	13.944712839137
0	5498	26413.305101158047	43.558455253427
0	5501	26440.482768648092	27.177667490045
0	5502	26445.877284598076	5.394515949984
0	5506	26447.499746189058	1.622461590982
0	5512	26484.759602566719	37.259856377661
0	5514	26488.150507324463	3.390904757744
0	5519	26549.106829078652	60.956321754189
0	5523	26597.370304365276	48.263475286624
0	5525	26609.026902368804	11.656598003528
0	5527	26622.893750207676	13.866847838872
0	5533	26676.102961349683	53.209211142007
0	5535	26696.170644897891	20.067683548208
0	5539	26735.616616307288	39.445971409397
0	5541	26763.416022600633	27.799406293345
0	5544	26771.494005536517	8.077982935884
0	5546	26782.158413168118	10.664407631601
0	5547	26798.240192967508	16.08177979939
0	5554	26826.695257848375	28.455064880867
0	5560	26887.070789570919	60.375531722544
0	5562	26895.288945048948	8.218155478029
0	5566	26949.615381643803	54.326436594855
0	5568	26971.591687888237	21.976306244434
0	5569	26972.398005629796	0.806317741559
0	5570	26972.935411651909	0.537406022113
0	5571	26974.30852619767	1.373114545761
0	5573	26980.459402324537	6.150876126867
0	5582	27016.827440973466	36.368038648929
0	5584	27031.394285573334	14.566844599868
0	5587	27046.348565158804	14.95427958547
0	5592	27057.498826911162	11.150261752358
0	5593	27063.354997705506	5.856170794344
0	5600	27094.082207271111	30.727209565605
0	5601	27102.905359660181	8.82315238907
0	5614	27172.360066014038	69.454706353857
0	5615	27174.480054226428	2.11998821239
0	5623	27217.889330262182	43.409276035754
0	5626	27230.321072683878	12.431742421696
0	5628	27243.05415343798	12.733080754102
0	5629	27248.849541817376	5.795388379396
0	5633	27257.686437749392	8.836895932016
0	5637	27282.947327151505	25.260889402113
0	5640	27285.886522767953	2.939195616448
0	5642	27293.730215542037	7.843692774084
0	5648	27319.746087466693	26.015871924656
0	5650	27333.096348186586	13.350260719893
0	5657	27362.419752405166	29.32340421858
0	5660	27379.987601922246	17.56784951708
0	5667	27415.479086468337	35.491484546091
0	5670	27417.296034005598	1.816947537261
0	5673	27425.665289701671	8.369255696073
0	5680	27464.86196383293	39.196674131259
0	5685	27487.807957279297	22.945993446367
0	5687	27508.110619690276	20.302662410979
0	5692	27526.180792568929	18.070172878653
0	5694	27533.181527853994	7.000735285065
0	5698	27560.801032965867	27.619505111873
0	5701	27563.187592347619	2.386559381752
0	5703	27569.511570690338	6.323978342719
0	5704	27575.491313860819	5.979743170481
0	5707	27581.76199304602	6.270679185201
0	5709	27585.633861688801	3.871868642781
0	5710	27593.924254135589	8.290392446788
0	5711	27595.47808203676	1.553827901171
0	5720	27635.119748419609	39.641666382849
0	5724	27646.885094223512	11.765345803903
0	5726	27656.970036708368	10.084942484856
0	5727	27666.722258938295	9.752222229927
0	5730	27673.963279987949	7.241021049654
0	5735	27693.243772743001	19.280492755052
0	5736	27693.340425410182	0.096652667181
0	5737	27698.259500667136	4.919075256954
0	5738	27698.942492083833	0.682991416697
0	5745	27739.484880720053	40.54238863622
0	5752	27753.716069213288	14.231188493235
0	5753	27768.459371616145	14.743302402857
0	5760	27788.505851333215	20.04647971707
0	5761	27796.751370584268	8.245519251053
0	5767	27817.40609752617	20.654726941902
0	5768	27818.704405572908	1.298308046738
0	5770	27822.397077122595	3.692671549687
0	5771	27829.56580168547	7.168724562875
0	5772	27836.88457960056	7.31877791509
0	5779	27871.343478940813	34.458899340253
0	5782	27880.974432734446	9.630953793633
0	5784	27881.992404183509	1.017971449063
0	5815	28055.972978847716	173.98057466421
0	5824	28119.180227725026	63.20724887731
0	5826	28130.41226263795	11.232034912924
0	5829	28163.718866983537	33.306604345587
0	5830	28165.390269190691	1.671402207154
0	5834	28169.186077737141	3.79580854645
0	5840	28218.153139853525	48.967062116384
0	5842	28225.840556848985	7.68741699546
0	5846	28241.911445207331	16.070888358346
0	5849	28255.275214136457	13.363768929126
0	5850	28258.633363567768	3.358149431311
0	5859	28300.338834949466	41.705471381698
0	5863	28349.187675173825	48.848840224359
0	5865	28355.277849589729	6.090174415904
0	5867	28370.977640554665	15.699790964936
0	5870	28385.342237097098	14.364596542433
0	5872	28389.834021531791	4.491784434693
0	5880	28447.274031160995	57.440009629204
0	5882	28452.739373205115	5.46534204412
0	5885	28476.319801655431	23.580428450316
0	5890	28511.402951441657	35.083149786226
0	5893	28533.189815276855	21.786863835198
0	5896	28564.728620219009	31.538804942154
0	5897	28567.678676310118	2.950056091109
0	5904	28607.278577381778	39.59990107166
0	5906	28626.23292443273	18.954347050952
0	5909	28653.546701392866	27.313776960136
0	5911	28658.160200523942	4.613499131076
0	5915	28669.600113492412	11.43991296847
0	5921	28739.278256149651	69.678142657239
0	5924	28776.559841589564	37.281585439913
0	5925	28779.10509324269	2.545251653126
0	5928	28789.255445543992	10.150352301302
0	5934	28879.992251709371	90.736806165379
0	5937	28924.085230885558	44.092979176187
0	5938	28925.665214404013	1.579983518455
0	5939	28926.559728625916	0.894514221903
0	5942	28939.740597294628	13.180868668712
0	5950	28993.228343254955	53.487745960327
0	5951	28993.327993106406	0.099649851451
0	5955	29000.382213953225	7.054220846819
0	5956	29001.913797417024	1.531583463799
0	5957	29003.114607498663	1.200810081639
0	5959	29008.66211688221	5.547509383547
0	5960	29008.928338497408	0.266221615198
0	5961	29021.009504237586	12.081165740178
0	5967	29040.074512267157	19.065008029571
0	5969	29042.198987163889	2.124474896732
0	5975	29075.763255740664	33.564268576775
0	5980	29099.383969613605	23.620713872941
0	5983	29106.46816931657	7.084199702965
0	5985	29122.273868876393	15.805699559823
0	5995	29167.072583374404	44.798714498011
0	5998	29177.326986602508	10.254403228104
0	6000	29186.313072903977	8.986086301469
0	6004	29210.1544704939	23.841397589923
0	6007	29218.640591093119	8.486120599219
0	6009	29224.233070410952	5.592479317833
0	6012	29224.827797807473	0.594727396521
0	6014	29230.514044702127	5.686246894654
0	6015	29241.805783214806	11.291738512679
0	6022	29262.055305739898	20.249522525092
0	6023	29262.58421484694	0.528909107042
0	6024	29268.862042680869	6.277827833929
0	6025	29276.1820904668	7.320047785931
0	6038	29341.490497709493	65.308407242693
0	6039	29347.70476001187	6.214262302377
0	6044	29358.187291686891	10.482531675021
0	6045	29358.466710682864	0.279418995973
0	6048	29370.460708549394	11.99399786653
0	6055	29415.719459324311	45.258750774917
0	6058	29422.790842881074	7.071383556763
0	6062	29434.227950301061	11.437107419987
0	6067	29463.261548630309	29.033598329248
0	6070	29469.299530808068	6.037982177759
0	6072	29475.816797599759	6.517266791691
0	6073	29483.612610202412	7.795812602653
0	6080	29516.883594587228	33.270984384816
0	6084	29532.709369913909	15.825775326681
0	6088	29548.266372577474	15.557002663565
0	6092	29568.62122899998	20.354856422506
0	6095	29578.39666067818	9.7754316782
0	6097	29579.081408523052	0.684747844872
0	6101	29600.857616272229	21.776207749177
0	6102	29601.141355733745	0.283739461516
0	6103	29605.170327367964	4.028971634219
0	6104	29605.900392080513	0.730064712549
0	6108	29619.429526871729	13.529134791216
0	6112	29626.287723681327	6.858196809598
0	6119	29661.307619483473	35.019895802146
0	6120	29665.985438724822	4.677819241349
0	6126	29687.730057967976	21.744619243154
0	6128	29713.715862577138	25.985804609162
0	6141	29777.847816665077	64.131954087939
0	6148	29801.310785574207	23.46296890913
0	6155	29829.969122855049	28.658337280842
0	6156	29850.601151614819	20.63202875977
0	6165	29885.984681027795	35.383529412976
0	6178	29951.273560116435	65.28887908864
0	6180	29960.62158049246	9.348020376025
0	6193	30029.954243032834	69.332662540374
0	6194	30032.633579441946	2.679336409112
0	6198	30046.797246119921	14.163666677975
0	6208	30097.79980806429	51.002561944369
0	6209	30100.147122536648	2.347314472358
0	6212	30114.723874340985	14.576751804337
0	6213	30115.082642358159	0.358768017174
0	6217	30118.331252126343	3.248609768184
0	6219	30124.308115071639	5.976862945296
0	6220	30144.459900223527	20.151785151888
0	6227	30159.975132891888	15.515232668361
0	6228	30164.95729712336	4.982164231472
0	6234	30188.115838663792	23.158541540432
0	6236	30212.978624843849	24.862786180057
0	6242	30224.175053318407	11.196428474558
0	6244	30226.541689198406	2.366635879999
0	6245	30231.550030901788	5.008341703382
0	6246	30244.414463161526	12.864432259738
0	6253	30266.228496525023	21.814033363497
0	6254	30272.722782809905	6.494286284882
0	6255	30280.730675542873	8.007892732968
0	6262	30310.051511502878	29.320835960005
0	6263	30312.00718927441	1.955677771532
0	6266	30316.506945387415	4.499756113005
0	6273	30347.428061214723	30.921115827308
0	6284	30413.194203914177	65.766142699454
0	6288	30432.889758867602	19.695554953425
0	6291	30437.749841940317	4.860083072715
0	6292	30442.027129211036	4.277287270719
0	6297	30461.542883539948	19.515754328912
0	6316	30577.496224723517	115.95334118357
0	6321	30582.20897303101	4.712748307493
0	6324	30613.385033439496	31.176060408486
0	6328	30653.272007468706	39.88697402921
0	6331	30705.158851828209	51.886844359503
0	6333	30724.16003283029	19.001181002081
0	6336	30750.43999092573	26.27995809544
0	6339	30762.734139135251	12.294148209521
0	6340	30765.724395983661	2.99025684841
0	6345	30787.041187782088	21.316791798427
0	6346	30790.025800349424	2.984612567336
0	6347	30797.467969005209	7.442168655785
0	6354	30831.439112104848	33.971143099639
0	6360	30850.855769547993	19.416657443145
0	6362	30858.949284113308	8.093514565315
0	6363	30868.440200407648	9.49091629434
0	6367	30877.687674479597	9.247474071949
0	6368	30882.098594141389	4.410919661792
0	6372	30889.019843498391	6.921249357002
0	6382	30948.56486906212	59.545025563729
0	6391	31044.2559333405	95.69106427838
0	6392	31044.490364893304	0.234431552804
0	6395	31066.174934261912	21.684569368608
0	6401	31144.810834253342	78.63589999143
0	6403	31176.978700737185	32.167866483843
0	6406	31188.065958299878	11.087257562693
0	6408	31196.085362173361	8.019403873483
0	6409	31204.762070224425	8.676708051064
0	6415	31223.992598844261	19.230528619836
0	6417	31238.381203211419	14.388604367158
0	6423	31256.70468401577	18.323480804351
0	6425	31258.679313907464	1.974629891694
0	6426	31269.17119472023	10.491880812766
0	6433	31316.522506936623	47.351312216393
0	6438	31322.521704739496	5.999197802873
0	6440	31325.133803506572	2.612098767076
0	6442	31337.095973412735	11.962169906163
0	6443	31339.593486909993	2.497513497258
0	6444	31344.047842219588	4.454355309595
0	6456	31394.669764908151	50.621922688563
0	6458	31405.916608890583	11.246843982432
0	6465	31451.207113683397	45.290504792814
0	6468	31452.816239106154	1.609125422757
0	6472	31466.221517742008	13.405278635854
0	6477	31489.271039792443	23.049522050435
0	6478	31489.928577655941	0.657537863498
0	6482	31516.601232261288	26.672654605347
0	6489	31550.222725282655	33.621493021367
0	6493	31559.657675266437	9.434949983782
0	6494	31559.885456188259	0.227780921822
0	6501	31602.511219763638	42.625763575379
0	6502	31605.19830308119	2.687083317552
0	6508	31616.23295617362	11.03465309243
0	6510	31624.056304627206	7.823348453586
0	6511	31631.799960440173	7.743655812967
0	6512	31642.668459954599	10.868499514426
0	6519	31665.585789004587	22.917329049988
0	6520	31668.998610871816	3.412821867229
0	6523	31679.909095429563	10.910484557747
0	6528	31711.996822681959	32.087727252396
0	6540	31753.859137746531	41.862315064572
0	6542	31765.779281908592	11.920144162061
0	6543	31779.716233142608	13.936951234016
0	6547	31787.096023329949	7.379790187341
0	6561	31864.460240613048	77.364217283099
0	6563	31872.749512931195	8.289272318147
0	6567	31890.520490327472	17.770977396277
0	6568	31899.922456705675	9.401966378203
0	6571	31903.573527724775	3.6510710191
0	6572	31903.605941955777	0.032414231002
0	6576	31911.12299233546	7.517050379683
0	6578	31930.11766972308	18.99467738762
0	6585	31947.333390435401	17.215720712321
0	6586	31961.22769163176	13.894301196359
0	6593	31981.769486138255	20.541794506495
0	6594	31987.211351064976	5.441864926721
0	6595	31996.285157979078	9.073806914102
0	6596	32001.634603628672	5.349445649594
0	6602	32013.348735884493	11.714132255821
0	6604	32017.943161343507	4.594425459014
0	6605	32021.970248790705	4.027087447198
0	6606	32025.382068076111	3.411819285406
0	6607	32042.87044155522	17.488373479109
0	6614	32058.267677995839	15.397236440619
0	6615	32069.595913509242	11.328235513403
0	6616	32072.696789385587	3.100875876345
0	6622	32085.819420141872	13.122630756285
0	6624	32104.936619967187	19.117199825315
0	6637	32167.843333377557	62.90671341037
0	6638	32170.475936472865	2.632603095308
0	6644	32193.836699995975	23.36076352311
0	6649	32224.407323703523	30.570623707548
0	6652	32232.207152465274	7.799828761751
0	6657	32254.971207424271	22.764054958997
0	6658	32255.557159205538	0.585951781267
0	6665	32282.626878837837	27.069719632299
0	6668	32301.505609791962	18.878730954125
0	6673	32313.33701326986	11.831403477898
0	6674	32314.886785370196	1.549772100336
0	6675	32328.021676596017	13.134891225821
0	6676	32333.536952030601	5.515275434584
0	6683	32345.242032419416	11.705080388815
0	6690	32405.411022235993	60.168989816577
0	6693	32406.713564764811	1.302542528818
0	6698	32431.577182881896	24.863618117085
0	6711	32503.569944765666	71.99276188377
0	6726	32574.580186992446	71.01024222678
0	6733	32625.99795029836	51.417763305914
0	6735	32630.975638374902	4.977688076542
0	6737	32640.476012105225	9.500373730323
0	6738	32650.601014738748	10.125002633523
0	6739	32655.248683101689	4.647668362941
0	6746	32691.350061657007	36.101378555318
0	6749	32692.081395807985	0.731334150978
0	6754	32710.495006251605	18.41361044362
0	6760	32740.155960438424	29.660954186819
0	6761	32741.261365125337	1.105404686913
0	6769	32783.08755524161	41.826190116273
0	6772	32790.540176845728	7.452621604118
0	6774	32793.121075416762	2.580898571034
0	6775	32803.264921202955	10.143845786193
0	6776	32807.554992800381	4.290071597426
0	6777	32809.838965566481	2.2839727661
0	6790	32867.069303246343	57.230337679862
0	6791	32875.387257875124	8.317954628781
0	6798	32893.199264467556	17.812006592432
0	6799	32903.258957276151	10.059692808595
0	6800	32906.251158271043	2.992200994892
0	6801	32911.478637111323	5.22747884028
0	6808	32941.521172385372	30.042535274049
0	6809	32943.7354814958	2.214309110428
0	6816	32979.860960684488	36.125479188688
0	6823	33000.866944511092	21.005983826604
0	6830	33041.087986674825	40.221042163733
0	6834	33058.443966495214	17.355979820389
0	6835	33058.550562624464	0.10659612925
0	6838	33066.148409422803	7.597846798339
0	6840	33079.233555037742	13.085145614939
0	6844	33091.196522004103	11.962966966361
0	6848	33109.770893344471	18.574371340368
0	6852	33123.169000276985	13.398106932514
0	6853	33130.259682282328	7.090682005343
0	6857	33149.622624844429	19.362942562101
0	6864	33183.41907552306	33.796450678631
0	6868	33198.415318165256	14.996242642196
0	6871	33208.896030762102	10.480712596846
0	6876	33228.750556960487	19.854526198385
0	6889	33304.903318165714	76.152761205227
0	6892	33316.455055306872	11.551737141158
0	6897	33329.803551094076	13.348495787204
0	6898	33343.240140288371	13.436589194295
0	6907	33405.529116936399	62.288976648028
0	6908	33407.122236298327	1.593119361928
0	6911	33420.269572326651	13.147336028324
0	6912	33437.648894069531	17.37932174288
0	6919	33455.565311858364	17.916417788833
0	6922	33473.463234027831	17.897922169467
0	6927	33495.150622707608	21.687388679777
0	6932	33520.151898429257	25.001275721649
0	6936	33574.741776347711	54.589877918454
0	6938	33597.938446642144	23.196670294433
0	6940	33604.565245949664	6.62679930752
0	6943	33607.839598429642	3.274352479978
0	6947	33637.409463650288	29.569865220646
0	6952	33661.23553545344	23.826071803152
0	6957	33680.63928592483	19.40375047139
0	6959	33684.887532070308	4.248246145478
0	6962	33710.530029513877	25.642497443569
0	6969	33777.568732456603	67.038702942726
0	6971	33799.031380447119	21.462647990516
0	6972	33800.897290197837	1.865909750718
0	6977	33826.929326426545	26.032036228708
0	6980	33835.496624679022	8.567298252477
0	6981	33839.28187116869	3.785246489668
0	6982	33840.511634639902	1.229763471212
0	6987	33848.898097549023	8.386462909121
0	6994	33900.621400191439	51.723302642416
0	6999	33911.212897329677	10.591497138238
0	7002	33927.892570674874	16.679673345197
0	7003	33928.481295464826	0.588724789952
0	7004	33928.997195530244	0.515900065418
0	7005	33930.285719504526	1.288523974282
0	7006	33942.095875955874	11.810156451348
0	7019	33992.156480124541	50.060604168667
0	7020	33994.838046473962	2.681566349421
0	7034	34080.53687694469	85.698830470728
0	7036	34083.560125044172	3.023248099482
0	7040	34097.269154797158	13.709029752986
0	7041	34106.216355226289	8.947200429131
0	7045	34119.577278244926	13.360923018637
0	7048	34123.4113458495	3.834067604574
0	7049	34125.488538722125	2.077192872625
0	7051	34137.816672784611	12.328134062486
0	7052	34145.949033582661	8.13236079805
0	7056	34151.33929928173	5.390265699069
0	7060	34175.749686693829	24.410387412099
0	7061	34179.22544417157	3.475757477741
0	7064	34181.633479872489	2.408035700919
0	7066	34193.472350918399	11.83887104591
0	7079	34266.338040152157	72.865689233758
0	7086	34285.622620885255	19.284580733098
0	7096	34344.517346740441	58.894725855186
0	7098	34345.2409967615	0.723650021059
0	7100	34351.249934953123	6.008938191623
0	7101	34353.558783981519	2.308849028396
0	7102	34354.740488954534	1.181704973015
0	7103	34356.924995877476	2.184506922942
0	7110	34407.174520467557	50.249524590081
0	7117	34427.189712419542	20.015191951985
0	7124	34460.937001459028	33.747289039486
0	7125	34469.935986813747	8.998985354719
0	7135	34512.076384602813	42.140397789066
0	7138	34522.365927347548	10.289542744735
0	7140	34532.109029015108	9.74310166756
0	7147	34566.939886827519	34.830857812411
0	7148	34573.441816740234	6.501929912715
0	7154	34594.70935227622	21.267535535986
0	7158	34608.853989346397	14.144637070177
0	7160	34615.782747699972	6.928758353575
0	7167	34647.656323370722	31.87357567075
0	7168	34660.064301030038	12.407977659316
0	7175	34681.159408516125	21.095107486087
0	7176	34681.600801329282	0.441392813157
0	7179	34701.801182795223	20.200381465941
0	7180	34702.398482724603	0.59729992938
0	7191	34747.60999223793	45.211509513327
0	7192	34760.051242912027	12.441250674097
0	7193	34761.73031424067	1.679071328643
0	7194	34763.495843137268	1.765528896598
0	7195	34766.026966219499	2.531123082231
0	7200	34773.167872016511	7.140905797012
0	7201	34774.281715573732	1.113843557221
0	7204	34784.355475042597	10.073759468865
0	7205	34795.766284745583	11.410809702986
0	7206	34803.009584989873	7.24330024429
0	7213	34827.008717724402	23.999132734529
0	7214	34836.579400954598	9.570683230196
0	7223	34872.750933185159	36.171532230561
0	7228	34891.661684782044	18.910751596885
0	7229	34892.711043398784	1.04935861674
0	7230	34893.153259954377	0.442216555593
0	7231	34899.473408951738	6.320148997361
0	7235	34908.143684820613	8.670275868875
0	7239	34927.263408614456	19.119723793843
0	7240	34934.045119816543	6.781711202087
0	7244	34941.550136136462	7.505016319919
0	7248	34964.973874140565	23.423738004103
0	7255	35000.027519910669	35.053645770104
0	7256	35002.041023708773	2.013503798104
0	7259	35004.814403789939	2.773380081166
0	7260	35005.318802872297	0.504399082358
0	7268	35055.48697676535	50.168173893053
0	7271	35055.902262150408	0.415285385058
0	7272	35061.768158359377	5.865896208969
0	7274	35063.101837941673	1.333679582296
0	7278	35072.436881019994	9.335043078321
0	7281	35093.762987033198	21.326106013204
0	7286	35120.387657384218	26.62467035102
0	7293	35147.056516364001	26.668858979783
0	7300	35182.740858336478	35.684341972477
0	7307	35219.660351130159	36.919492793681
0	7308	35231.725374317467	12.065023187308
0	7326	35316.196992565827	84.47161824836
0	7331	35336.0077072445	19.810714678673
0	7332	35338.231697150626	2.223989906126
0	7336	35360.547797444293	22.316100293667
0	7340	35368.32430467139	7.776507227097
0	7347	35404.126617201199	35.802312529809
0	7351	35424.900962203682	20.774345002483
0	7355	35436.433528781107	11.532566577425
0	7356	35444.085440201544	7.651911420437
0	7357	35444.23925826079	0.153818059246
0	7364	35473.55581788665	29.31655962586
0	7365	35478.004680572829	4.448862686179
0	7370	35496.282675344847	18.277994772018
0	7375	35528.279023359606	31.996348014759
0	7380	35554.536579007247	26.257555647641
0	7387	35573.990140226036	19.453561218789
0	7388	35591.862789595617	17.872649369581
0	7392	35598.921284434667	7.05849483905
0	7401	35636.393286443489	37.472002008822
0	7403	35648.931237855569	12.53795141208
0	7407	35665.843288933534	16.912051077965
0	7414	35698.685596111936	32.842307178402
0	7417	35712.431261342382	13.745665230446
0	7419	35722.319790366019	9.888529023637
0	7423	35738.875533374118	16.555743008099
0	7424	35740.268390901108	1.39285752699
0	7427	35748.875640612396	8.607249711288
0	7429	35753.432170048072	4.556529435676
0	7433	35779.879496262397	26.447326214325
0	7437	35788.073158435524	8.193662173127
0	7441	35796.600922078167	8.527763642643
0	7448	35842.550967448773	45.950045370606
0	7455	35874.833517062415	32.282549613642
0	7462	35898.390526798344	23.557009735929
0	7463	35900.57524542453	2.184718626186
0	7464	35904.253857173461	3.678611748931
[...]
4	6124	29686.365191582887	0
4	6129	29715.548436969583	1
4	6131	29718.793233044238	0
4	6135	29750.941257275241	1
4	6137	29751.479051128759	0
4	6142	29784.572006831302	0
4	6144	29786.9856472253	1
4	6149	29818.050782396362	0
4	6152	29823.456134298338	1
4	6157	29851.280582573736	0
4	6160	29858.75652280719	1
4	6163	29884.454627241138	0
4	6167	29895.658787479707	1
4	6170	29917.495202193058	0
4	6173	29931.889352602759	1
4	6176	29951.084033679116	0
4	6181	29968.003996015172	1
4	6184	29984.507834971344	0
4	6187	30003.719227410184	1
4	6190	30016.984577083475	0
4	6195	30039.770250269458	1
4	6199	30049.89221469152	0
4	6202	30076.166492386672	1
4	6205	30083.172471352277	0
4	6210	30111.588742672773	1
4	6214	30116.2684371187	0
4	6221	30147.605064783979	1
4	6223	30149.860960620025	0
4	6229	30182.690279745484	0
4	6231	30183.627974970309	1
4	6237	30215.424343766183	0
4	6240	30219.801321900475	1
4	6247	30248.201658338352	0
4	6250	30256.005046912757	1
4	6256	30281.461213056451	0
4	6259	30291.822116395414	1
4	6264	30314.16557916157	0
4	6268	30328.14404847555	1
4	6271	30347.280206759202	0
4	6275	30364.810379780974	1
4	6278	30380.476160658475	0
4	6281	30401.006783062259	1
4	6285	30414.258983509681	0
4	6289	30436.367522404211	1
4	6294	30447.037800636104	0
4	6298	30472.602693224315	1
4	6301	30480.185834611668	0
4	6304	30508.961246325992	1
4	6306	30512.847078573604	0
4	6310	30544.756093792096	1
4	6312	30545.567550957424	0
4	6317	30578.269412237204	0
4	6319	30580.511389547451	1
4	6323	30611.723285692212	0
4	6326	30617.82838990213	1
4	6327	30646.851768077595	0
4	6330	30687.097702077949	0
4	6335	30738.755561423541	0
4	6338	30760.900227447672	1
4	6342	30782.949459890209	0
4	6348	30798.853721558894	1
4	6351	30815.910237304021	0
4	6355	30834.893944232075	1
4	6358	30849.662130912471	0
4	6364	30871.184550148055	1
4	6369	30883.309437019236	0
4	6373	30906.517423544866	1
4	6376	30915.816412933592	0
4	6379	30942.320468384164	1
4	6383	30948.864986635503	0
4	6386	30978.250908650701	1
4	6388	30982.422145679651	0
4	6390	31014.103322039661	1
4	6396	31077.216903390704	0
4	6399	31080.989993805989	1
4	6400	31110.247372642813	0
4	6404	31177.765070303625	0
4	6410	31213.144890433685	1
4	6413	31221.597951070095	0
4	6418	31249.355335377886	1
4	6420	31254.411803217176	0
4	6427	31285.35074173013	1
4	6429	31287.851417004684	0
4	6434	31320.662903073615	0
4	6436	31321.413716968858	1
4	6445	31354.17252205068	0
4	6448	31357.183754078458	1
4	6451	31386.558373856869	0
4	6454	31392.584236815697	1
4	6459	31418.787132296585	0
4	6462	31428.635479619131	1
4	6466	31451.324916453637	0
4	6470	31465.175700724181	1
4	6474	31484.434686010262	0
4	6479	31499.921081264819	1
4	6483	31516.962572863866	0
4	6486	31535.999998674791	1
4	6490	31550.444572327082	0
4	6495	31571.842016590419	1
4	6498	31582.802362300825	0
4	6503	31608.49700187403	1
4	6506	31615.038522035551	0
4	6513	31644.496374293483	1
4	6515	31648.256330676326	0
4	6521	31679.875713966852	1
4	6524	31680.993235857688	0
4	6529	31714.143007964582	0
4	6531	31716.676897718615	1
4	6535	31747.544459978468	0
4	6538	31753.45738332646	1
4	6544	31780.544633539163	0
4	6548	31789.719076429015	1
4	6551	31813.623014035342	0
4	6554	31825.701221911639	1
4	6557	31846.704730595981	0
4	6560	31861.637878558768	1
4	6564	31879.139843084314	0
4	6569	31901.033678477423	1
4	6574	31910.548049052388	0
4	6579	31937.385824760342	1
4	6581	31943.275766835257	0
4	6587	31973.806754244126	1
4	6589	31975.638607812376	0
4	6597	32009.428698896763	0
4	6599	32010.185784577395	1
4	6608	32042.967701682465	0
4	6611	32046.511405763922	1
4	6617	32074.475747543228	0
4	6620	32083.132630344647	1
4	6625	32108.024356637282	0
4	6628	32119.30122022759	1
4	6631	32141.20580144511	0
4	6634	32155.674592645599	1
4	6639	32174.102412201488	0
4	6642	32191.637706252122	1
4	6646	32207.127504784364	0
4	6650	32228.032286799927	1
4	6654	32240.546947032254	0
4	6659	32263.680328014907	1
4	6662	32273.098477028866	0
4	6666	32300.470347736459	1
4	6669	32305.431879070612	0
4	6677	32335.719788542086	1
4	6679	32339.420071053925	0
4	6684	32371.847870553703	1
4	6686	32372.763893633814	0
4	6691	32406.389204652252	0
4	6694	32407.903871295021	1
4	6699	32440.01941027877	0
4	6702	32445.004710134489	1
4	6705	32471.917263192551	0
4	6708	32481.355093438905	1
4	6712	32505.55442979481	0
4	6715	32517.380704054901	1
4	6718	32539.235469034584	0
4	6721	32553.841114811451	1
4	6724	32572.900286435685	0
4	6728	32589.735897742714	1
4	6731	32606.709284803459	0
4	6732	32625.584539602964	1
4	6740	32658.622115802369	0
4	6743	32666.576298087538	1
4	6747	32691.834690622834	0
4	6751	32702.587538194559	1
4	6755	32724.642381089896	0
4	6758	32739.298879118568	1
4	6763	32757.675241517022	0
4	6766	32774.83299222768	1
4	6770	32789.902624620614	0
4	6778	32811.405762721516	1
4	6781	32822.5871639211	0
4	6784	32846.663536369673	1
4	6787	32855.304900485365	0
4	6792	32882.389194646529	1
4	6794	32888.223133157277	0
4	6802	32918.781767926815	1
4	6804	32921.613805465645	0
4	6810	32954.032803434946	1
4	6812	32955.390253209862	0
4	6817	32988.526842582761	0
4	6819	32990.317066941742	1
4	6824	33021.753726779645	0
4	6827	33025.886024881364	1
4	6831	33054.82945412041	0
4	6836	33061.88325437063	1
4	6841	33087.810569957405	0
4	6845	33098.800610835594	1
4	6849	33120.098450764483	0
4	6854	33134.138463404535	1
4	6858	33153.082994261074	0
4	6861	33170.27303683542	1
4	6865	33185.640218019651	0
4	6869	33206.657588275572	1
4	6873	33218.855918203294	0
4	6877	33242.72151580047	1
4	6880	33252.695291687812	0
4	6883	33277.12420952466	1
4	6886	33286.745551533104	0
4	6890	33313.491569115652	1
4	6894	33319.997930815381	0
4	6899	33349.647227735386	1
4	6901	33353.624420764195	0
4	6905	33385.976526272007	0
4	6906	33386.065714650468	1
4	6913	33438.787680203926	0
4	6916	33443.124526764187	1
4	6920	33471.537391934147	0
4	6924	33479.10924565745	1
4	6928	33503.815429194572	0
4	6931	33515.369984376871	1
4	6934	33537.035975522316	0
4	6935	33555.758721114672	1
4	6941	33607.363874203137	0
4	6945	33633.791794201973	1
4	6949	33640.166698190541	0
4	6953	33670.012173857239	1
4	6955	33673.601464587484	0
4	6960	33706.403965852479	1
4	6964	33713.787756346528	0
4	6967	33742.074515608652	1
4	6968	33746.996356809831	0
4	6974	33810.332339703436	0
4	6978	33835.126903120946	1
4	6984	33843.358888324711	0
4	6988	33870.837561107833	1
4	6991	33877.006049425198	0
4	6995	33906.858836703817	1
4	6997	33910.012721964949	0
4	7007	33942.280124685236	1
4	7009	33942.984495283139	0
4	7013	33975.858775091762	0
4	7015	33978.044366009746	1
4	7021	34008.86554189133	0
4	7024	34014.31272647561	1
4	7027	34042.355449151868	0
4	7030	34050.016108506364	1
4	7033	34075.19626312331	0
4	7037	34086.290696461651	1
4	7042	34113.78939730505	0
4	7046	34122.830875994547	1
4	7053	34147.343421385298	0
4	7057	34159.514478367467	1
4	7062	34180.533555638568	0
4	7067	34194.87679652306	1
4	7070	34213.703109384996	0
4	7073	34230.588475838449	1
4	7076	34246.444160472846	0
4	7080	34266.537718703458	1
4	7083	34278.667764765396	0
4	7087	34302.870474300557	1
4	7090	34311.508249373196	0
4	7093	34339.055662445703	1
4	7095	34344.013266920009	0
4	7104	34375.869259169207	1
4	7106	34377.55486285414	0
4	7111	34410.348236719002	0
4	7113	34411.269370100396	1
4	7118	34443.163541540943	0
4	7120	34446.141226968158	1
4	7126	34476.335512436951	0
4	7129	34481.966617398218	1
4	7132	34508.868096426304	0
4	7136	34517.512747000713	1
4	7141	34542.138039645387	0
4	7144	34554.171398717388	1
4	7149	34574.294063471001	0
4	7152	34589.725833702691	1
4	7156	34606.57533796499	0
4	7161	34626.126041097396	1
4	7164	34639.682656725007	0
4	7169	34661.960967643854	1
4	7172	34672.435905470288	0
4	7177	34698.077694249959	1
4	7182	34706.312663182181	0
4	7185	34732.819919409771	1
4	7188	34739.513503060997	0
4	7196	34768.651366520167	1
4	7198	34771.654452322529	0
4	7207	34804.250748522996	0
4	7209	34804.451146026255	1
4	7215	34837.841661709107	0
4	7217	34839.421127797165	1
4	7221	34870.762939509086	0
4	7225	34874.836845967815	1
4	7232	34904.611660179783	0
4	7236	34910.32862527186	1
4	7241	34937.233271979778	0
4	7245	34947.103216395444	1
4	7249	34969.749464115019	0
4	7252	34982.943786395925	1
4	7257	35002.483134170275	0
4	7262	35018.849414118127	1
4	7265	35036.006124241005	0
4	7269	35055.790442036379	1
4	7275	35068.60144479625	0
4	7279	35092.059927443839	1
4	7283	35101.420833949386	0
4	7287	35128.32929484687	1
4	7289	35134.207655548912	0
4	7294	35165.317363312217	1
4	7296	35168.289820092422	0
4	7301	35200.931805346145	0
4	7303	35201.135353959088	1
4	7309	35233.40889354034	0
4	7312	35238.069497830496	1
4	7315	35266.140261186438	0
4	7318	35274.261219990781	1
4	7321	35298.973752790105	0
4	7324	35310.387407738348	1
4	7328	35331.809255936329	0
4	7333	35345.777999227205	1
4	7337	35364.501846203955	0
4	7341	35381.507751528966	1
4	7344	35396.925066657736	0
4	7348	35417.413681430241	1
4	7352	35429.74073880439	0
4	7358	35454.571546192033	1
4	7361	35462.518532114426	0
4	7366	35490.676694424625	1
4	7368	35495.345634902608	0
4	7373	35526.645326729716	1
4	7376	35528.512403995811	0
4	7381	35560.729642778583	0
4	7383	35563.286378044152	1
4	7389	35593.827976491506	0
4	7393	35599.41391697972	1
4	7396	35626.355845562897	0
4	7399	35636.338355058247	1
4	7404	35659.416013643324	0
4	7408	35672.955556491227	1
4	7411	35692.773151815265	0
4	7415	35707.908572229951	1
4	7420	35726.278136967369	0
4	7425	35744.757958024976	1
4	7430	35759.40958566155	0
4	7434	35781.148520156161	1
4	7438	35792.647269994808	0
4	7442	35816.722227651519	1
4	7445	35825.783731622121	0
4	7449	35852.847348034283	1
4	7452	35859.082410882929	0
4	7456	35888.252638285069	1
4	7458	35891.457775473422	0
4	7466	35924.570192907403	1
4	7468	35924.99235108063	0
4	7474	35957.681246925186	0
4	7476	35960.570598429559	1
4	7483	35991.235130179409	0
4	7486	35995.850923124989	1
4	7490	36023.897976548989	0
4	7493	36031.504677738774	1
4	7498	36056.926757237784	0
4	7501	36067.703588714996	1
4	7506	36090.123981251755	0
4	7509	36103.726174565428	1
4	7513	36123.978823605051	0
4	7516	36140.226629255783	1
4	7520	36156.823712186378	0
4	7524	36176.659763977822	1
4	7528	36189.489821621019	0
4	7534	36212.788917616216	1
4	7537	36222.860582841295	0
4	7541	36248.00811731448	1
4	7545	36255.502702522549	0
4	7550	36284.522287552949	1
4	7552	36288.252601904448	0
4	7556	36320.505087702304	1
4	7558	36321.315991952622	0
4	7563	36354.698967940342	0
4	7565	36356.244490681485	1
4	7570	36387.728046831099	0
4	7573	36392.73086719084	1
4	7576	36420.395022272322	0
4	7580	36428.621172839108	1
4	7584	36452.595424234982	0
4	7587	36464.627568088418	1
4	7591	36485.958754984984	0
4	7595	36512.738334903861	1
4	7598	36518.854654997142	0
4	7604	36548.532305267164	1
4	7607	36555.399633898944	0
4	7611	36584.900446562431	1
4	7614	36588.202451297149	0
4	7620	36620.392119666887	0
4	7622	36621.240837486419	1
4	7627	36653.637517465539	0
4	7631	36657.027974401826	1
4	7636	36686.036845051894	0
4	7639	36692.450513642962	1
4	7644	36719.988572611754	0
4	7647	36728.364421808636	1
4	7652	36752.269876455906	0
4	7655	36764.015645115903	1
4	7659	36785.430256742464	0
4	7662	36800.281214918566	1
4	7666	36819.116060481461	0
4	7671	36836.245250096642	1
4	7674	36852.184821364339	0
4	7678	36871.445073414624	1
4	7683	36885.017282205229	0
4	7688	36907.9738709591	1
4	7691	36918.415984386201	0
4	7696	36943.953541280971	1
4	7699	36951.657303035024	0
4	7704	36979.901870406069	1
4	7706	36984.706300243838	0
4	7710	37016.888065832261	1
4	7712	37017.727616135856	0
4	7717	37052.796040524487	1
4	7721	37059.696123843067	0
4	7725	37087.902803525779	1
4	7728	37092.780524883087	0
4	7733	37124.038911696461	1
4	7735	37125.970569671657	0
4	7737	37159.303628349979	1
4	7743	37206.752059906626	0
4	7746	37213.114252918728	1
4	7750	37239.209577495626	0
4	7755	37263.310224813673	1
4	7759	37272.375394088444	0
4	7765	37299.381946904722	1
4	7767	37304.817813545098	0
4	7773	37335.189719119206	1
4	7775	37337.189062313274	0
4	7782	37370.027746944254	0
4	7784	37371.276175140663	1
4	7788	37402.393489768366	0
4	7791	37406.061750104256	1
4	7796	37434.510282473381	0
4	7800	37441.692775005269	1
4	7805	37467.338003145644	0
4	7809	37477.572986792361	1
4	7813	37500.184068823535	0
4	7817	37512.87276668586	1
4	7820	37533.235009958095	0
4	7823	37549.351607140373	1
4	7826	37566.169431166167	0
4	7830	37585.731566020561	1
4	7833	37598.715985408312	0
4	7834	37621.777122386419	1
4	7843	37655.544110034152	0
4	7846	37664.485896516059	1
4	7849	37689.541335551136	0
4	7852	37700.408101660197	1
4	7855	37722.942718451799	0
4	7859	37735.936187497284	1
4	7863	37756.16885275911	0
4	7867	37772.104900383376	1
4	7873	37788.795691274727	0
4	7879	37808.359831442228	1
4	7883	37821.567478962476	0
4	7886	37844.045097383158	1
4	7890	37853.652964040255	0
4	7899	37879.981238171875	1
4	7902	37886.411370257275	0
4	7907	37916.107486925948	1
4	7909	37919.109267518191	0
4	7915	37951.729847729499	0
4	7917	37952.379988477846	1
4	7923	37984.907199197442	0
4	7926	37988.723862197201	1
4	7932	38017.558169366727	0
4	7935	38025.34674359234	1
4	7939	38051.24210573897	0
4	7944	38062.148964341351	1
4	7948	38083.051919298657	0
4	7952	38098.083926840966	1
4	7957	38116.274102487681	0
4	7960	38134.399636690856	1
4	7963	38149.719318494213	0
4	7970	38170.708127873204	1
4	7974	38182.232935632657	0
4	7977	38206.643062779809	1
4	7980	38215.338645618421	0
4	7983	38242.263120361203	1
4	7986	38248.319725201546	0
4	7990	38278.789015882532	1
4	7992	38281.000495917575	0
4	7996	38313.634495186454	0
4	7998	38314.033577075535	1
4	8003	38346.775255515828	0
4	8006	38350.339942120506	1
4	8011	38379.690302839449	0
4	8015	38386.52025092507	1
4	8021	38412.746487962663	0
4	8025	38422.384419177803	1
4	8029	38445.525082618122	0
4	8034	38459.992652821767	1
4	8040	38477.937178207521	0
4	8044	38496.218201558442	1
4	8048	38511.462623556425	0
4	8051	38531.698116775555	1
4	8056	38543.493403511965	0
4	8060	38568.489901048205	1
4	8063	38576.646980759443	0
4	8066	38603.983199789217	1
4	8068	38609.282160749829	0
4	8072	38639.700649985084	1
4	8074	38642.023993437426	0
4	8078	38675.123590588352	0
4	8080	38675.587082538643	1
4	8085	38707.628494537824	0
4	8088	38711.454317655481	1
4	8091	38740.107901057634	0
4	8094	38747.504185849974	1
4	8099	38773.937179059058	0
4	8103	38788.065411505987	1
4	8106	38806.349774917028	0
4	8109	38823.905829429236	1
4	8113	38839.617874750991	0
4	8116	38862.180235742928	1
4	8119	38872.338427137106	0
4	8120	38899.762109653744	1
4	8123	38955.941511518654	0
4	8130	39053.061357609886	0
4	8133	39057.804486809451	1
4	8138	39085.883728742405	0
4	8141	39094.874257657082	1
4	8148	39118.600140023898	0
4	8151	39132.034269920276	1
4	8154	39151.749877950753	0
4	8157	39168.395157512802	1
4	8161	39184.789417999477	0
4	8164	39204.08024360239	1
4	8165	39217.932700267782	0
4	8169	39259.602666692288	0
4	8175	39293.737843603421	1
4	8177	39295.045102328562	0
4	8181	39328.338368015648	0
4	8182	39329.761842215489	1
4	8190	39367.417676300829	0
4	8193	39384.476577055388	1
4	8199	39400.449081278933	0
4	8203	39420.123709560343	1
4	8206	39432.939978108096	0
4	8209	39455.907639703094	1
4	8213	39465.268580486429	0
4	8218	39492.193056227156	1
4	8221	39497.15208797636	0
4	8227	39528.87668467314	1
4	8229	39530.336753176985	0
4	8235	39563.331416283013	0
4	8237	39564.998527292382	1
4	8241	39596.007192832283	0
4	8245	39601.0294229479	1
4	8251	39628.89255895953	0
4	8254	39636.939352158651	1
4	8259	39661.345529556829	0
4	8262	39673.19151512689	1
4	8265	39694.67883287984	0
4	8268	39708.93929208517	1
4	8271	39727.748605482791	0
4	8273	39744.837283220778	1
4	8279	39776.200989149413	0
4	8282	39788.743603051059	1
4	8287	39809.983014432754	0
4	8290	39824.338180408638	1
4	8294	39843.768487059508	0
4	8298	39860.23519072395	1
4	8302	39876.879598805111	0
4	8306	39896.458369900379	1
4	8310	39909.720597164761	0
4	8316	39931.885315403842	1
4	8319	39942.226525389954	0
4	8324	39968.959378055017	1
4	8329	39975.065055031982	0
4	8334	40004.663391831993	1
4	8336	40007.672763767368	0
4	8340	40040.305427108223	0
4	8342	40041.568028112372	1
4	8347	40072.841054296777	0
4	8351	40077.691706468396	1
4	8357	40106.235941649771	0
4	8360	40113.627415065456	1
4	8366	40138.611363392742	0
4	8369	40150.228697833239	1
4	8374	40172.411217091632	0
4	8378	40186.851620051614	1
4	8382	40205.129003426578	0
4	8385	40223.107758726914	1
4	8388	40238.034360362857	0
4	8393	40259.164780865633	1
4	8396	40269.637890316392	0
4	8400	40294.163842941314	1
4	8403	40302.90965627925	0
4	8406	40330.103353221478	1
4	8410	40336.326365075631	0
4	8414	40366.21897286175	1
4	8416	40369.797034945328	0
4	8420	40402.381159108697	1
4	8422	40406.728364133572	0
4	8424	40439.387690778398	1
4	8427	40586.383010339531	0
4	8433	40634.678178377164	0
4	8437	40652.312056036826	1
4	8440	40667.627454450496	0
4	8446	40688.840000318253	1
4	8449	40709.262527826269	0
4	8452	40725.036214935393	1
4	8456	40742.431381331314	0
4	8461	40760.312908705775	1
4	8464	40775.15696066373	0
4	8467	40796.662150789832	1
4	8468	40808.438732792391	0
4	8475	40847.392294354449	0
4	8479	40856.277067262773	1
4	8482	40880.348231041468	0
4	8485	40892.583308902703	1
4	8488	40912.933224989493	0
4	8492	40935.570168455498	1
4	8495	40955.91688210015	0
4	8499	40971.672387185789	1
4	8503	40991.987062573938	0
4	8507	41007.932093187805	1
4	8510	41025.17819137289	0
4	8514	41043.606414770765	1
4	8517	41069.843258898052	0
4	8519	41079.062648796257	1
4	8525	41111.300746461752	0
4	8529	41116.516650016999	1
4	8534	41144.314981908114	0
4	8537	41153.030312819465	1
4	8541	41176.539037793336	0
4	8544	41189.852094448765	1
4	8547	41209.490563892563	0
4	8548	41225.356723756836	1
4	8556	41288.380974973951	0
4	8559	41292.040488036966	1
4	8564	41321.633167733966	0
4	8567	41328.680303145077	1
4	8572	41354.630043721461	0
4	8575	41363.977513180673	1
4	8578	41388.198345281295	0
4	8581	41399.471768907857	1
4	8582	41421.415947328421	0
4	8586	41469.163847644244	0
4	8588	41502.544627141877	1
4	8594	41568.77681752864	0
4	8597	41576.478216238666	1
4	8600	41601.89315995576	0
4	8601	41631.468564561243	1
4	8606	41671.509967126641	0
4	8607	41698.240071293262	1
4	8613	41776.586573345512	0
4	8617	41784.829056131232	1
4	8620	41809.304823276166	0
4	8624	41820.852314377735	1
4	8628	41845.045425530209	0
4	8633	41856.882041417978	1
4	8638	41877.215517806785	0
4	8641	41892.60221294443	1
4	8645	41910.290535035962	0
4	8649	41929.206314468696	1
4	8653	41943.919983239222	0
4	8657	41964.894265811695	1
4	8662	41977.767725052577	0
4	8667	42000.9979296787	1
4	8672	42010.408637970571	0
4	8676	42036.342830107984	1
4	8679	42042.634413098902	0
4	8684	42072.846506759671	1
4	8686	42075.100278997849	0
4	8691	42107.29488850898	0
4	8693	42108.601939751984	1
4	8699	42140.518133074871	0
4	8702	42144.30189024313	1
4	8706	42173.652347038679	0
4	8709	42180.442879262932	1
4	8712	42207.690511038382	0
4	8715	42216.699672192311	1
4	8716	42241.040947889806	0
4	8721	42282.146405480642	0
4	8724	42307.986647899216	1
4	8725	42320.939736941651	0
4	8731	42368.221267822169	0
4	8734	42376.08419448171	1
4	8735	42401.187794632943	0
4	8738	42443.613364087366	0
4	8744	42520.788267864254	0
4	8748	42525.145826822139	1
4	8751	42553.379200830113	0
4	8752	42560.862818711604	1
4	8758	42601.001462409345	0
4	8763	42606.576523833597	1
4	8766	42634.471084852676	0
4	8769	42641.853024002353	1
4	8770	42666.413236586424	0
4	8777	42704.64389181102	0
4	8780	42720.531444403835	1
4	8783	42737.205957758483	0
4	8788	42757.073303118278	1
4	8791	42777.839609101332	0
4	8795	42794.204269580126	1
4	8798	42810.732746924501	0
4	8803	42830.614640451998	1
4	8808	42849.302656483589	0
4	8811	42867.028995254095	1
4	8816	42882.226860219851	0
4	8821	42902.580453392603	1
4	8826	42914.721134098436	0
4	8830	42938.681136854995	1
4	8833	42947.98113645586	0
4	8837	42974.699372230724	1
4	8840	42980.765044365536	0
4	8844	43011.047255541326	1
4	8846	43013.377758887853	0
4	8853	43045.895005327267	0
4	8855	43046.852374971212	1
4	8859	43079.254089399092	0
4	8862	43082.050343934304	1
4	8869	43113.303529086905	0
4	8872	43118.120288125447	1
4	8876	43147.09024333156	0
4	8879	43154.147483606751	1
4	8886	43179.578165588877	0
4	8891	43190.428691948134	1

