version 2
run General-3-20180204-17:50:47-2520
attr configname General
attr datetime 20180204-17:50:47
attr experiment General
attr inifile carrefour.ini
attr iterationvars $0=20
attr iterationvarsf 20-
attr measurement $0=20
attr network Carrefour
attr processid 2520
attr repetition 0
attr replication #0
attr resultdir results
attr runnumber 3
attr seedset 3
param **.lambda 20
param **.numeroCasse 2
param **.mu 30
param **.tipoSimulazione 0
param **.delay 3
param **.ServiceType 1
param **.varianceLogNormal 0.25
param **.meanLogNormal 30

vector 0 Carrefour.coda 1_Lambda:vector ETV
attr source Interarrivals
attr title "1/lambda, vector"
vector 1 Carrefour.coda E_Nq:vector ETV
attr source QueueLenght
attr title "E[Nq], vector"
vector 2 Carrefour.coda E_W:vector ETV
attr source Queuing
attr title "E[W], vector"
vector 3 Carrefour.decisore E_R:vector ETV
attr source TotalTime
attr title "E[R], vector"
vector 4 Carrefour.decisore ActiveTillStat:vector ETV
attr source ActiveTill
attr title "Active Till, vector"
0	1	7	7
0	3	13.22514667919	6.22514667919
0	7	82.012258117396	68.787111438206
0	8	82.791131574953	0.778873457557
0	11	90.529755360971	7.738623786018
0	12	105.232223990666	14.702468629695
0	15	115.798421212995	10.566197222329
0	24	161.286539099905	45.48811788691
0	26	173.48797811798	12.201439018075
0	27	173.566653664322	0.078675546342
0	31	189.045511486294	15.478857821972
0	32	191.393964346889	2.348452860595
0	39	216.298825621459	24.90486127457
0	40	219.021437022749	2.72261140129
0	51	292.321645501481	73.300208478732
0	53	299.434400725648	7.112755224167
0	59	350.983139887708	51.54873916206
0	61	362.912889614152	11.929749726444
0	63	383.204182804063	20.291293189911
0	68	413.582553623661	30.378370819598
0	69	413.873828180435	0.291274556774
0	72	419.201423244265	5.32759506383
0	75	439.405951262957	20.204528018692
0	84	488.897242110924	49.491290847967
0	86	503.130314035098	14.233071924174
0	87	505.850967204617	2.720653169519
0	89	510.393346495031	4.542379290414
0	90	518.469429355448	8.076082860417
0	96	542.83650341611	24.367074060662
0	104	586.018190761096	43.181687344986
0	108	603.892322602379	17.874131841283
0	113	628.746571256187	24.854248653808
0	115	636.552410415605	7.805839159418
0	118	651.097826340943	14.545415925338
0	123	668.979731571439	17.881905230496
0	128	705.599308487145	36.619576915706
0	130	715.734281062388	10.134972575243
0	136	756.244684365983	40.510403303595
0	138	779.015851911748	22.771167545765
0	142	833.842092494078	54.82624058233
0	144	865.622862623229	31.780770129151
0	147	888.288845600966	22.665982977737
0	149	900.974181550094	12.685335949128
0	155	947.4113227642	46.437141214106
0	157	959.623491401822	12.212168637622
0	160	990.932622787068	31.309131385246
0	163	999.920177914261	8.987555127193
0	165	1021.803254787995	21.883076873734
0	170	1050.801256181151	28.998001393156
0	173	1058.780521829202	7.979265648051
0	174	1059.790434967652	1.00991313845
0	176	1066.869669932168	7.079234964516
0	183	1098.910146689622	32.040476757454
0	187	1128.952446235796	30.042299546174
0	190	1144.447379272489	15.494933036693
0	195	1169.211361091017	24.763981818528
0	197	1184.709152291796	15.497791200779
0	200	1198.588831831638	13.879679539842
0	201	1199.809426816753	1.220594985115
0	206	1205.537603430179	5.728176613426
0	207	1207.738440050475	2.200836620296
0	208	1217.417925092739	9.679485042264
0	209	1227.552643401801	10.134718309062
0	210	1227.871177610649	0.318534208848
0	213	1233.133201766503	5.262024155854
0	218	1250.01743661969	16.884234853187
0	231	1332.305433309351	82.287996689661
0	237	1342.550816678093	10.245383368742
0	239	1349.476733714254	6.925917036161
0	240	1364.182402289395	14.705668575141
0	246	1378.871591888569	14.689189599174
0	253	1412.615958670372	33.744366781803
0	255	1432.992359355365	20.376400684993
0	258	1435.951837551634	2.959478196269
0	266	1482.838130835962	46.886293284328
0	272	1500.665036170234	17.826905334272
0	273	1502.39250986885	1.727473698616
0	275	1507.143441650761	4.750931781911
0	276	1510.425087312157	3.281645661396
0	283	1538.395478021538	27.970390709381
0	284	1555.808924019959	17.413445998421
0	287	1557.730565194993	1.921641175034
0	292	1575.166889738004	17.436324543011
0	293	1577.318576065696	2.151686327692
0	294	1584.485894954279	7.167318888583
0	301	1603.635732730171	19.149837775892
0	302	1614.419160973274	10.783428243103
0	303	1618.038438941799	3.619277968525
0	310	1650.869562383129	32.83112344133
0	317	1670.896072714164	20.026510331035
0	318	1676.570455543904	5.67438282974
0	324	1702.994470979689	26.424015435785
0	332	1752.450039108618	49.455568128929
0	336	1768.986369861647	16.536330753029
0	339	1774.164129801229	5.177759939582
0	346	1813.311428176452	39.147298375223
0	348	1826.274291234174	12.962863057722
0	357	1863.55271318474	37.278421950566
0	366	1921.453307303835	57.900594119095
0	370	1967.087067280878	45.633759977043
0	372	1993.335325478386	26.248258197508
0	374	1999.721133186488	6.385807708102
0	375	1999.993254754565	0.272121568077
0	384	2064.413898002564	64.420643247999
0	386	2094.386146079337	29.972248076773
0	389	2100.444800003553	6.058653924216
0	390	2102.537333735895	2.092533732342
0	396	2140.005872104949	37.468538369054
0	398	2160.135052848771	20.129180743822
0	401	2168.863783978275	8.728731129504
0	406	2198.24858366898	29.384799690705
0	411	2219.691198620852	21.442614951872
0	415	2315.69033712817	95.999138507318
0	416	2317.61239778696	1.92206065879
0	418	2319.439605127941	1.827207340981
0	420	2326.294755550744	6.855150422803
0	421	2341.743836577291	15.449081026547
0	422	2346.482395222626	4.738558645335
0	434	2396.164968929042	49.682573706416
0	441	2457.488742003529	61.323773074487
0	443	2462.553516856559	5.06477485303
0	446	2491.147325600646	28.593808744087
0	449	2518.992430987704	27.845105387058
0	452	2536.162597949496	17.170166961792
0	456	2575.990209523795	39.827611574299
0	459	2610.836621077283	34.846411553488
0	462	2693.835037638909	82.998416561626
0	464	2710.040417877991	16.205380239082
0	468	2747.806001415881	37.76558353789
0	470	2762.134559940899	14.328558525018
0	472	2771.48465811415	9.350098173251
0	473	2777.655422099637	6.170763985487
0	477	2791.548647079548	13.893224979911
0	484	2819.83062841855	28.281981339002
0	489	2854.641364949259	34.810736530709
0	492	2885.642620656669	31.00125570741
0	495	2906.164979607121	20.522358950452
0	497	2910.303097620154	4.138118013033
0	498	2910.604113671948	0.301016051794
0	499	2911.922280913183	1.318167241235
0	500	2914.747824210841	2.825543297658
0	503	2921.526080388543	6.778256177702
0	504	2922.344980674858	0.818900286315
0	509	2941.953357922791	19.608377247933
0	510	2946.315734974222	4.362377051431
0	523	3025.77993971767	79.464204743448
0	532	3065.929014374181	40.149074656511
0	533	3070.120179568181	4.191165194
0	538	3080.047272176802	9.927092608621
0	545	3109.216487171736	29.169214994934
0	550	3147.404861741388	38.188374569652
0	552	3157.268052845412	9.863191104024
0	555	3172.964774353329	15.696721507917
0	556	3177.387073443506	4.422299090177
0	563	3212.56499051051	35.177917067004
0	568	3219.096453316085	6.531462805575
0	569	3226.599202950287	7.502749634202
0	570	3232.116262434228	5.517059483941
0	571	3236.599075814516	4.482813380288
0	578	3264.821322660788	28.222246846272
0	579	3270.348598132435	5.527275471647
0	584	3281.648027195828	11.299429063393
0	587	3288.939350829143	7.291323633315
0	594	3323.486819713768	34.547468884625
0	600	3354.688133855707	31.201314141939
0	601	3356.977125311808	2.288991456101
0	603	3361.56477580523	4.587650493422
0	604	3364.717349415745	3.152573610515
0	608	3384.090457833706	19.373108417961
0	611	3391.228015543367	7.137557709661
0	613	3395.35333679044	4.125321247073
0	614	3407.947874513113	12.594537722673
0	615	3409.180198275784	1.232323762671
0	621	3429.648305862768	20.468107586984
0	623	3441.458396221555	11.810090358787
0	627	3447.651030216117	6.192633994562
0	628	3456.45089898547	8.799868769353
0	632	3471.122486557711	14.671587572241
0	636	3482.441943933075	11.319457375364
0	637	3484.919360113931	2.477416180856
0	650	3550.563962827573	65.644602713642
0	651	3565.617674809682	15.053711982109
0	658	3600.689182994553	35.071508184871
0	665	3613.64390528817	12.954722293617
0	666	3625.267566070765	11.623660782595
0	673	3667.442926828135	42.17536075737
0	674	3668.356142640851	0.913215812716
0	675	3673.008340426801	4.65219778595
0	687	3719.195243136045	46.186902709244
0	692	3750.049451966201	30.854208830156
0	696	3758.752555170748	8.703103204547
0	697	3764.132785274508	5.38023010376
0	698	3766.524290942412	2.391505667904
0	701	3774.550240239636	8.025949297224
0	703	3777.182183727346	2.63194348771
0	704	3781.992628644774	4.810444917428
0	711	3814.30071464652	32.308086001746
0	715	3838.749772479398	24.449057832878
0	718	3839.801037843264	1.051265363866
0	720	3847.143798771431	7.342760928167
0	723	3864.856595256791	17.71279648536
0	727	3872.902927001216	8.046331744425
0	731	3896.017732903147	23.114805901931
0	733	3902.658470854995	6.640737951848
0	740	3937.73732503854	35.078854183545
0	743	3939.571483066803	1.834158028263
0	745	3943.886781818378	4.315298751575
0	752	3976.565332607462	32.678550789084
0	753	3999.028573034352	22.46324042689
0	760	4020.883809458357	21.855236424005
0	761	4025.787623327112	4.903813868755
0	768	4045.156099112818	19.368475785706
0	775	4083.397710034269	38.241610921451
0	776	4090.046971641575	6.649261607306
0	780	4105.653537643088	15.606566001513
0	784	4121.610821004934	15.957283361846
0	790	4149.609568793045	27.998747788111
0	797	4186.24473479495	36.635166001905
0	798	4187.729076677286	1.484341882336
0	800	4194.024040359199	6.294963681913
0	801	4198.882183413802	4.858143054603
0	805	4208.646895445826	9.764712032024
0	808	4223.322056728856	14.67516128303
0	813	4243.212874415985	19.890817687129
0	820	4283.786424797802	40.573550381817
0	824	4300.314700206644	16.528275408842
0	827	4302.0733192563	1.758619049656
0	829	4310.704271423839	8.630952167539
0	836	4345.488014531908	34.783743108069
0	839	4364.243727934598	18.75571340269
0	849	4403.737987011716	39.494259077118
0	857	4450.755476603202	47.017489591486
0	863	4472.603693907894	21.848217304692
0	868	4502.702762976411	30.099069068517
0	875	4539.858733517844	37.155970541433
0	882	4571.024470202793	31.165736684949
0	883	4571.116395870989	0.091925668196
0	887	4585.926554095281	14.810158224292
0	888	4590.450776342039	4.524222246758
0	892	4605.296191025061	14.845414683022
0	895	4620.208488812257	14.912297787196
0	900	4640.282208061918	20.073719249661
0	901	4640.911827508054	0.629619446136
0	902	4645.442711600881	4.530884092827
0	905	4652.817166701766	7.374455100885
0	906	4657.403902638494	4.586735936728
0	908	4658.639007357627	1.235104719133
0	909	4662.526382801019	3.887375443392
0	912	4663.03206031316	0.505677512141
0	914	4680.989046418362	17.956986105202
0	915	4681.551891692109	0.562845273747
0	918	4692.047695037349	10.49580334524
0	923	4719.283991714317	27.236296676968
0	929	4730.749964273387	11.46597255907
0	931	4733.607253359915	2.857289086528
0	932	4754.243876126168	20.636622766253
0	945	4812.457469256617	58.213593130449
0	946	4823.940217009014	11.482747752397
0	952	4834.743486461983	10.803269452969
0	954	4848.728760240548	13.985273778565
0	955	4860.55612430806	11.827364067512
0	962	4885.907034666655	25.350910358595
0	975	4945.045461436376	59.138426769721
0	985	5000.836179892332	55.790718455956
0	989	5021.470642762527	20.634462870195
0	992	5029.526334429973	8.055691667446
0	1000	5064.584791965704	35.058457535731
0	1013	5137.49765779509	72.912865829386
0	1020	5176.780769171806	39.283111376716
0	1021	5188.073674174657	11.292905002851
0	1026	5191.436203406309	3.362529231652
0	1029	5203.805120821305	12.368917414996
0	1030	5219.030979479752	15.225858658447
0	1037	5251.786024689525	32.755045209773
0	1043	5264.297207217015	12.51118252749
0	1045	5279.701170295635	15.40396307862
0	1048	5289.062218708442	9.361048412807
0	1052	5300.908636388587	11.846417680145
0	1057	5323.855322074442	22.946685685855
0	1061	5345.606204713197	21.750882638755
0	1064	5355.305469628511	9.699264915314
0	1068	5368.562347937791	13.25687830928
0	1070	5378.538496219857	9.976148282066
0	1076	5408.218259916333	29.679763696476
0	1077	5408.510708519568	0.292448603235
0	1078	5409.698254556212	1.187546036644
0	1085	5442.6380103853	32.939755829088
0	1089	5454.076580812972	11.438570427672
0	1091	5474.298769416716	20.222188603744
0	1097	5488.568829911376	14.27006049466
0	1099	5496.866070392061	8.297240480685
0	1100	5499.162524492807	2.296454100746
0	1101	5500.845841090523	1.683316597716
0	1102	5504.893087240843	4.04724615032
0	1105	5513.253951031569	8.360863790726
0	1109	5519.013605003197	5.759653971628
0	1111	5525.685621098205	6.672016095008
0	1122	5587.465305213081	61.779684114876
0	1125	5590.024246318665	2.558941105584
0	1126	5596.253107532105	6.22886121344
0	1127	5617.932326543915	21.67921901181
0	1134	5628.322183121629	10.389856577714
0	1135	5633.239893847589	4.91771072596
0	1142	5676.956890536067	43.716996688478
0	1146	5689.541223865209	12.584333329142
0	1150	5711.066604169008	21.525380303799
0	1154	5726.464948431137	15.398344262129
0	1160	5753.446313892288	26.981365461151
0	1165	5770.30021635669	16.853902464402
0	1168	5787.315601834436	17.015385477746
0	1176	5834.555786144281	47.240184309845
0	1191	5908.203323926368	73.647537782087
0	1196	5942.817237999081	34.613914072713
0	1201	5968.904177178007	26.086939178926
0	1203	5975.545657412528	6.641480234521
0	1206	5982.658072919676	7.112415507148
0	1212	6023.134056858467	40.475983938791
0	1215	6044.916457029026	21.782400170559
0	1219	6104.993430824038	60.076973795012
0	1221	6109.289794797736	4.296363973698
0	1223	6121.410051672936	12.1202568752
0	1227	6141.063177043564	19.653125370628
0	1232	6180.671003624172	39.607826580608
0	1235	6186.028768301131	5.357764676959
0	1237	6196.281605106563	10.252836805432
0	1238	6208.886439780965	12.604834674402
0	1247	6258.112811709693	49.226371928728
0	1250	6300.046385301846	41.933573592153
0	1252	6315.822979067647	15.776593765801
0	1255	6345.648001030393	29.825021962746
0	1259	6419.403794776796	73.755793746403
0	1261	6428.728161064712	9.324366287916
0	1265	6469.93630697307	41.208145908358
0	1267	6476.452760778424	6.516453805354
0	1269	6492.454347480477	16.001586702053
0	1270	6497.04671244708	4.592364966603
0	1276	6516.457831104343	19.411118657263
0	1277	6517.880356071826	1.422524967483
0	1279	6530.718015408625	12.837659336799
0	1282	6538.03253354507	7.314518136445
0	1284	6540.731918328389	2.699384783319
0	1293	6585.134530075873	44.402611747484
0	1295	6596.445065404105	11.310535328232
0	1296	6599.388207847357	2.943142443252
0	1299	6605.055849429248	5.667641581891
0	1301	6609.624357803193	4.568508373945
0	1308	6643.504678030521	33.880320227328
0	1309	6647.556241118072	4.051563087551
0	1313	6663.569721286205	16.013480168133
0	1323	6720.160492354428	56.590771068223
0	1324	6721.818871880071	1.658379525643
0	1328	6736.176898268066	14.358026387995
0	1332	6747.684773082133	11.507874814067
0	1333	6750.161906329686	2.477133247553
0	1334	6758.384914013736	8.22300768405
0	1335	6762.326058671432	3.941144657696
0	1342	6799.863208640894	37.537149969462
0	1349	6818.86436721074	19.001158569846
0	1350	6819.601649900698	0.737282689958
0	1351	6835.840237890639	16.238587989941
0	1356	6837.566730576014	1.726492685375
0	1359	6854.038122045811	16.471391469797
0	1360	6860.276474566381	6.23835252057
0	1366	6876.341907450055	16.065432883674
0	1368	6900.07220320599	23.730295755935
0	1378	6943.854112159421	43.781908953431
0	1381	6947.165472440013	3.311360280592
0	1383	6960.461937163697	13.296464723684
0	1386	6970.259142376701	9.797205213004
0	1388	6976.562801423946	6.303659047245
0	1391	6982.095755730229	5.532954306283
0	1402	7041.895915477544	59.800159747315
0	1403	7052.200874247811	10.304958770267
0	1407	7060.3710739784	8.170199730589
0	1410	7068.630391720713	8.259317742313
0	1430	7185.063094458688	116.43270273797
0	1431	7194.398351593885	9.335257135197
0	1438	7215.628538209732	21.230186615847
0	1445	7254.239043182028	38.610504972296
0	1446	7255.548655419192	1.309612237164
0	1453	7282.032485514233	26.483830095041
0	1454	7283.400064216938	1.367578702705
0	1455	7287.857360604065	4.457296387127
0	1461	7308.60425891462	20.746898310555
0	1469	7353.232132270811	44.627873356191
0	1470	7363.40201880259	10.169886531779
0	1474	7373.945070373119	10.543051570529
0	1477	7378.472562951096	4.527492577977
0	1482	7414.400825514719	35.928262563623
0	1486	7426.63082169252	12.229996177801
0	1489	7430.266594443167	3.635772750647
0	1491	7448.758642640077	18.49204819691
0	1495	7459.446775496914	10.688132856837
0	1499	7473.950023843605	14.503248346691
0	1500	7474.725184860676	0.775161017071
0	1501	7484.433912340452	9.708727479776
0	1505	7493.363840365248	8.929928024796
0	1509	7502.074233907492	8.710393542244
0	1516	7543.145225644337	41.070991736845
0	1517	7552.668708182265	9.523482537928
0	1524	7574.592515057907	21.923806875642
0	1525	7592.230293529869	17.637778471962
0	1526	7593.951497351172	1.721203821303
0	1533	7606.229872474856	12.278375123684
0	1534	7621.809737651671	15.579865176815
0	1541	7642.880442881081	21.07070522941
0	1542	7646.714250631949	3.833807750868
0	1560	7738.627851821601	91.913601189652
0	1566	7775.180444935887	36.552593114286
0	1569	7802.129599700279	26.949154764392
0	1572	7815.899435287988	13.769835587709
0	1573	7816.491978631224	0.592543343236
0	1575	7822.309530664645	5.817552033421
0	1576	7830.804404175695	8.49487351105
0	1582	7857.834495393462	27.030091217767
0	1586	7871.56198905488	13.727493661418
0	1588	7878.039704112971	6.477715058091
0	1598	7933.999872123266	55.960168010295
0	1602	7941.097322165113	7.097450041847
0	1603	7958.145422711329	17.048100546216
0	1612	8004.647352973045	46.501930261716
0	1614	8025.692689966442	21.045336993397
0	1616	8038.103083738409	12.410393771967
0	1621	8062.719214814738	24.616131076329
0	1624	8072.205503955156	9.486289140418
0	1626	8082.867223477185	10.661719522029
0	1627	8095.104120536534	12.236897059349
0	1633	8105.487033304502	10.382912767968
0	1634	8107.759928386226	2.272895081724
0	1644	8182.517532785087	74.757604398861
0	1646	8202.812285671963	20.294752886876
0	1648	8209.419421810173	6.60713613821
0	1652	8227.603317304724	18.183895494551
0	1656	8245.399157687595	17.795840382871
0	1659	8252.207455555123	6.808297867528
0	1661	8260.763431966115	8.555976410992
0	1662	8265.163294938728	4.399862972613
0	1663	8269.817483791459	4.654188852731
0	1670	8291.482442165996	21.664958374537
0	1671	8303.167849876676	11.68540771068
0	1674	8312.362611991554	9.194762114878
0	1679	8323.779428842946	11.416816851392
0	1686	8362.271233074101	38.491804231155
0	1695	8416.240671881011	53.96943880691
0	1701	8455.299045509799	39.058373628788
0	1703	8457.440329973034	2.141284463235
0	1708	8497.682777263548	40.242447290514
0	1711	8554.290535117862	56.607757854314
0	1714	8619.182532652639	64.891997534777
0	1716	8633.985046709281	14.802514056642
0	1718	8640.496357548399	6.511310839118
0	1719	8643.848945703459	3.35258815506
0	1720	8644.597534686934	0.748588983475
0	1721	8648.246308200861	3.648773513927
0	1722	8649.542116108736	1.295807907875
0	1726	8659.935824851935	10.393708743199
0	1727	8664.648159705718	4.712334853783
0	1734	8698.189166762638	33.54100705692
0	1737	8709.575527298464	11.386360535826
0	1742	8722.374384203175	12.798856904711
0	1745	8747.987530309151	25.613146105976
0	1756	8790.916806840023	42.929276530872
0	1757	8810.011954974331	19.095148134308
0	1758	8814.523505109003	4.511550134672
0	1761	8817.882925121621	3.359420012618
0	1774	8887.300189577601	69.41726445598
0	1779	8897.907735465205	10.607545887604
0	1788	8995.569560073796	97.661824608591
0	1791	9083.79332904542	88.223768971624
0	1793	9107.235595475819	23.442266430399
0	1796	9129.884494207841	22.648898732022
0	1797	9130.468131527817	0.583637319976
0	1798	9131.78813640717	1.320004879353
0	1800	9134.565483460341	2.777347053171
0	1803	9143.110128537541	8.5446450772
0	1805	9159.789872951402	16.679744413861
0	1809	9173.398656527118	13.608783575716
0	1813	9185.139410481	11.740753953882
0	1817	9210.920210628604	25.780800147604
0	1821	9228.174548654321	17.254338025717
0	1825	9237.957208436013	9.782659781692
0	1832	9281.611951536645	43.654743100632
0	1839	9300.02800406526	18.416052528615
0	1840	9311.851837239486	11.823833174226
0	1841	9317.437484707948	5.585647468462
0	1844	9326.060761677779	8.623276969831
0	1849	9341.227066695014	15.166305017235
0	1850	9356.816834811674	15.58976811666
0	1857	9368.031630691928	11.214795880254
0	1858	9389.907738786318	21.87610809439
0	1870	9430.788290042729	40.880551256411
0	1871	9435.651161991525	4.862871948796
0	1873	9441.879112508889	6.227950517364
0	1877	9463.054252901357	21.175140392468
0	1881	9489.474129198797	26.41987629744
0	1885	9497.794306664031	8.320177465234
0	1892	9533.46397203891	35.669665374879
0	1895	9540.714384161607	7.250412122697
0	1897	9545.287567667116	4.573183505509
0	1901	9563.011628599506	17.72406093239
0	1904	9574.681205620092	11.669577020586
0	1905	9578.549685643415	3.868480023323
0	1909	9592.311941343456	13.762255700041
0	1922	9657.253103723126	64.94116237967
0	1924	9672.663730645414	15.410626922288
0	1935	9727.025543093953	54.361812448539
0	1937	9735.212849224333	8.18730613038
0	1943	9796.208607933743	60.99575870941
0	1945	9818.241108135899	22.032500202156
0	1948	9832.563543053587	14.322434917688
0	1950	9836.403969678506	3.840426624919
0	1951	9842.008271971823	5.604302293317
0	1954	9859.445136430946	17.436864459123
0	1959	9877.505485514937	18.060349083991
0	1960	9883.428382937764	5.922897422827
0	1971	9935.158101915757	51.729718977993
0	1975	9982.955870212331	47.797768296574
0	1978	10024.113896523261	41.15802631093
0	1981	10060.911311561661	36.7974150384
0	1983	10082.926191016585	22.014879454924
0	1984	10087.872631044374	4.946440027789
0	1989	10110.480032175244	22.60740113087
0	1993	10125.088042328249	14.608010153005
0	1997	10140.734257051837	15.646214723588
0	2002	10164.811247859034	24.076990807197
0	2004	10172.633029371231	7.821781512197
0	2005	10177.856493795128	5.223464423897
0	2006	10186.578903292614	8.722409497486
0	2013	10202.617618241289	16.038714948675
0	2014	10207.384512290954	4.766894049665
0	2015	10208.889166475768	1.504654184814
0	2016	10212.620664572019	3.731498096251
0	2017	10226.129851823457	13.509187251438
0	2024	10235.931499054849	9.801647231392
0	2025	10245.890108947749	9.9586098929
0	2026	10247.056583450837	1.166474503088
0	2027	10261.069904894186	14.013321443349
0	2034	10271.531416685317	10.461511791131
0	2035	10276.926577213443	5.395160528126
0	2042	10316.348185375964	39.421608162521
0	2046	10334.14072462302	17.792539247056
0	2049	10336.876447671568	2.735723048548
0	2051	10342.584072409334	5.707624737766
0	2054	10362.93291461548	20.348842206146
0	2058	10373.781855225955	10.848940610475
0	2060	10388.452217023774	14.670361797819
0	2070	10439.107969222946	50.655752199172
0	2076	10461.931492325144	22.823523102198
0	2078	10464.240243878621	2.308751553477
0	2085	10497.157995453009	32.917751574388
0	2086	10502.039030393291	4.881034940282
0	2089	10514.025999341438	11.986968948147
0	2094	10529.359202311732	15.333202970294
0	2095	10545.875732597718	16.516530285986
0	2102	10566.33542240218	20.459689804462
0	2103	10578.025535744685	11.690113342505
0	2104	10584.730373165144	6.704837420459
0	2116	10626.768928625587	42.038555460443
0	2118	10629.607713587466	2.838784961879
0	2119	10645.911773245053	16.304059657587
0	2132	10709.952078902898	64.040305657845
0	2138	10729.412233809374	19.460154906476
0	2140	10746.413266388518	17.001032579144
0	2141	10749.138834943146	2.725568554628
0	2142	10754.747431398147	5.608596455001
0	2155	10819.164667221023	64.417235822876
0	2162	10850.079681000142	30.915013779119
0	2168	10873.548900024108	23.469219023966
0	2169	10874.701145514986	1.152245490878
0	2174	10895.441804956801	20.740659441815
0	2181	10933.24998056368	37.808175606879
0	2188	10961.658604431464	28.408623867784
0	2194	11016.439217933851	54.780613502387
0	2196	11028.707403921493	12.268185987642
0	2198	11040.026806276143	11.31940235465
0	2199	11044.538028862698	4.511222586555
0	2200	11045.07434919933	0.536320336632
0	2201	11047.291867945365	2.217518746035
0	2205	11056.396555452354	9.104687506989
0	2209	11080.832765287971	24.436209835617
0	2213	11094.244512192747	13.411746904776
0	2214	11095.705438357838	1.460926165091
0	2221	11125.026050318256	29.320611960418
0	2225	11143.166362366438	18.140312048182
0	2229	11164.820753299123	21.654390932685
0	2236	11189.473745334284	24.652992035161
0	2237	11192.691928334908	3.218183000624
0	2238	11201.831704434083	9.139776099175
0	2239	11202.291713756312	0.460009322229
0	2240	11205.749415310754	3.457701554442
0	2241	11206.284509814848	0.535094504094
0	2248	11218.215337263851	11.930827449003
0	2255	11252.062695635456	33.847358371605
0	2260	11283.545980498547	31.483284863091
0	2269	11324.95963867967	41.413658181123
0	2284	11429.331564335802	104.37192565613
0	2286	11433.7572683764	4.425704040598
0	2290	11484.962440220593	51.205171844193
0	2292	11513.449806955197	28.487366734604
0	2295	11522.058460790167	8.60865383497
0	2297	11540.065549435196	18.007088645029
0	2302	11557.29397786003	17.228428424834
0	2303	11558.509685221533	1.215707361503
0	2305	11570.352650302959	11.842965081426
0	2306	11574.845054744603	4.492404441644
0	2313	11597.586109420422	22.741054675819
0	2314	11608.060085378033	10.473975957611
0	2315	11614.723264028695	6.663178650662
0	2316	11618.030880811203	3.307616782508
0	2317	11618.296602709975	0.265721898772
0	2318	11618.825585850924	0.528983140949
0	2325	11629.882819420745	11.057233569821
0	2331	11660.32826312358	30.445443702835
0	2338	11698.64491669526	38.31665357168
0	2340	11722.140217013567	23.495300318307
0	2344	11726.867765038829	4.727548025262
0	2347	11729.239500614914	2.371735576085
0	2349	11739.315717154536	10.076216539622
0	2350	11742.129355121179	2.813637966643
0	2351	11753.469857416597	11.340502295418
0	2357	11765.319647050036	11.849789633439
0	2359	11776.921943404225	11.602296354189
0	2372	11843.699733942963	66.777790538738
0	2373	11844.350007975435	0.650274032472
0	2377	11858.032368729058	13.682360753623
0	2378	11864.7702924118	6.737923682742
0	2379	11871.011649144155	6.241356732355
0	2386	11894.15034317442	23.138694030265
0	2393	11928.047642287934	33.897299113514
0	2400	11964.933037457769	36.885395169835
0	2401	11970.544107881678	5.611070423909
0	2408	12010.904777904069	40.360670022391
0	2411	12016.576326502415	5.671548598346
0	2422	12061.985245179136	45.408918676721
0	2423	12064.523745824675	2.538500645539
0	2430	12096.055750627136	31.532004802461
0	2437	12144.404071542454	48.348320915318
0	2440	12152.126401733634	7.72233019118
0	2441	12153.31889009192	1.192488358286
0	2445	12161.859288700318	8.540398608398
0	2447	12176.36680704462	14.507518344302
0	2454	12203.0816467533	26.71483970868
0	2455	12208.867522484363	5.785875731063
0	2456	12211.058558447234	2.191035962871
0	2457	12215.995979858805	4.937421411571
0	2461	12224.290460398173	8.294480539368
0	2465	12237.797694113153	13.50723371498
0	2471	12272.834095406643	35.03640129349
0	2472	12273.124641478026	0.290546071383
0	2474	12277.989938280804	4.865296802778
0	2486	12344.55166569361	66.561727412806
0	2490	12351.276468684901	6.724802991291
0	2492	12357.115416956433	5.838948271532
0	2493	12371.399080622277	14.283663665844
0	2500	12392.129460772613	20.730380150336
0	2518	12563.621414162143	171.49195338953
0	2520	12568.333264514073	4.71185035193
0	2522	12574.88301406357	6.549749549497
0	2523	12592.315437406187	17.432423342617
0	2529	12604.18045141517	11.865014008983
0	2531	12629.797443450307	25.616992035137
0	2535	12637.372923402307	7.575479952
0	2539	12654.088174067318	16.715250665011
0	2540	12655.96481438822	1.876640320902
0	2547	12696.10637433936	40.14155995114
0	2554	12719.558560868024	23.452186528664
0	2560	12779.463268877009	59.904708008985
0	2562	12789.950558772289	10.48728989528
0	2563	12791.89997159595	1.949412823661
0	2568	12822.351731234607	30.451759638657
0	2571	12828.053282508366	5.701551273759
0	2572	12828.098230311895	0.044947803529
0	2574	12832.164284360723	4.066054048828
0	2580	12866.797184097623	34.6328997369
0	2588	12910.655862952748	43.858678855125
0	2591	12913.76117107996	3.105308127212
0	2593	12923.370618648239	9.609447568279
0	2594	12929.849666364734	6.479047716495
0	2603	12973.466927769971	43.617261405237
0	2610	13014.074258871194	40.607331101223
0	2612	13022.099576098568	8.025317227374
0	2616	13088.085526765657	65.985950667089
0	2618	13091.089993417104	3.004466651447
0	2621	13126.716844006291	35.626850589187
0	2625	13167.605910582932	40.889066576641
0	2627	13175.098380279757	7.492469696825
0	2629	13198.7763209379	23.677940658143
0	2633	13207.416618968503	8.640298030603
0	2636	13216.039411794443	8.62279282594
0	2638	13220.295311334744	4.255899540301
0	2639	13230.803033544097	10.507722209353
0	2640	13232.925980790928	2.122947246831
0	2643	13234.481432674375	1.555451883447
0	2647	13248.802745257153	14.321312582778
0	2652	13280.807171334376	32.004426077223
0	2653	13281.508942375359	0.701771040983
0	2657	13290.119074006959	8.6101316316
0	2658	13293.310957859265	3.191883852306
0	2662	13313.673436865693	20.362479006428
0	2663	13315.47128355143	1.797846685737
0	2667	13332.588926907468	17.117643356038
0	2671	13345.040061214223	12.451134306755
0	2672	13352.652850258132	7.612789043909
0	2676	13362.778766841027	10.125916582895
0	2677	13363.854481123324	1.075714282297
0	2681	13371.547737880438	7.693256757114
0	2684	13392.293799318859	20.746061438421
0	2688	13400.71948414597	8.425684827111
0	2690	13404.126876141557	3.407391995587
0	2697	13447.09586451387	42.968988372313
0	2698	13459.182104706556	12.086240192686
0	2705	13497.147625192742	37.965520486186
0	2712	13510.298585138056	13.150959945314
0	2713	13516.223109586981	5.924524448925
0	2714	13523.616971435666	7.393861848685
0	2727	13583.398025959718	59.781054524052
0	2734	13623.381617594231	39.983591634513
0	2738	13639.352384805974	15.970767211743
0	2742	13653.821506392899	14.469121586925
0	2743	13658.617876281837	4.796369888938
0	2747	13670.278071336758	11.660195054921
0	2751	13691.950048665231	21.671977328473
0	2755	13702.834093727464	10.884045062233
0	2762	13744.689821017574	41.85572729011
0	2769	13780.962683351127	36.272862333553
0	2776	13806.324630535447	25.36194718432
0	2777	13807.117585085005	0.792954549558
0	2778	13818.15541826947	11.037833184465
0	2791	13892.827092946266	74.671674676796
0	2802	13936.34497841053	43.517885464264
0	2804	13952.741399806034	16.396421395504
0	2805	13952.925739282433	0.184339476399
0	2806	13953.713117359812	0.787378077379
0	2816	14006.090283441294	52.377166081482
0	2820	14019.011832382286	12.921548940992
0	2821	14022.487714791181	3.475882408895
0	2824	14027.122293598258	4.634578807077
0	2829	14052.026899810589	24.904606212331
0	2830	14056.057321158233	4.030421347644
0	2840	14100.792176558475	44.734855400242
0	2841	14114.204005603893	13.411829045418
0	2849	14151.62660724102	37.422601637127
0	2852	14166.728137616646	15.101530375626
0	2856	14211.236544401827	44.508406785181
0	2858	14214.367181242319	3.130636840492
0	2860	14230.943770777645	16.576589535326
0	2861	14239.14735941835	8.203588640705
0	2864	14244.840362105441	5.693002687091
0	2869	14272.791946656989	27.951584551548
0	2873	14280.756406473776	7.964459816787
0	2877	14293.747521289293	12.991114815517
0	2878	14304.545536108562	10.798014819269
0	2879	14305.244911595892	0.69937548733
0	2883	14315.581639747957	10.336728152065
0	2884	14317.155490861973	1.573851114016
0	2888	14334.143244340878	16.987753478905
0	2889	14335.278728223086	1.135483882208
0	2890	14337.168505397569	1.889777174483
0	2914	14489.821872572598	152.65336717503
0	2917	14532.265245380333	42.443372807735
0	2919	14546.210772579684	13.945527199351
0	2922	14576.778305756007	30.567533176323
0	2925	14593.22334938097	16.445043624963
0	2928	14612.099265812906	18.875916431936
0	2932	14645.096065763858	32.996799950952
0	2934	14657.049438914718	11.95337315086
0	2935	14660.088024096414	3.038585181696
0	2936	14660.716117923658	0.628093827244
0	2938	14664.377232755369	3.661114831711
0	2942	14689.68166848356	25.304435728191
0	2951	14727.993346251841	38.311677768281
0	2956	14753.603774439576	25.610428187735
0	2961	14789.622475225049	36.018700785473
0	2962	14791.234887148443	1.612411923394
0	2967	14817.127655429384	25.892768280941
0	2972	14841.22142528745	24.093769858066
0	2975	14861.121914954689	19.900489667239
0	2979	14897.848876701322	36.726961746633
0	2981	14926.217038176275	28.368161474953
0	2985	14980.890544400716	54.673506224441
0	2987	14992.442832955128	11.552288554412
0	2988	14995.298908697985	2.856075742857
0	2990	15006.937299326338	11.638390628353
0	2991	15014.545456061599	7.608156735261
0	3002	15073.000167223739	58.45471116214
0	3006	15131.169578282279	58.16941105854
0	3009	15170.954055220959	39.78447693868
0	3011	15176.492427621139	5.53837240018
0	3012	15178.894981295758	2.402553674619
0	3013	15179.213808279264	0.318826983506
0	3015	15190.073011412155	10.859203132891
0	3022	15234.906510439123	44.833499026968
0	3028	15253.75968302169	18.853172582567
0	3035	15306.942299754601	53.182616732911
0	3038	15377.356283718856	70.413983964255
0	3040	15398.440315893535	21.084032174679
0	3041	15402.915716042454	4.475400148919
0	3048	15445.3689222378	42.453206195346
0	3050	15463.801061790964	18.432139553164
0	3053	15479.270555430563	15.469493639599
0	3055	15488.554449508377	9.283894077814
0	3061	15545.786141023102	57.231691514725
0	3062	15546.990194225401	1.204053202299
0	3065	15555.087802823588	8.097608598187
0	3070	15592.505089263995	37.417286440407
0	3073	15613.275530886359	20.770441622364
0	3076	15643.644214957643	30.368684071284
0	3080	15684.866552109769	41.222337152126
0	3082	15701.047219772618	16.180667662849
0	3083	15702.848755312597	1.801535539979
0	3085	15716.998444858073	14.149689545476
0	3091	15740.111723440414	23.113278582341
0	3096	15766.532840557046	26.421117116632
0	3099	15774.978778493222	8.445937936176
0	3101	15783.602887403785	8.624108910563
0	3104	15786.535047473653	2.932160069868
0	3106	15793.39997508163	6.864927607977
0	3107	15800.980489404054	7.580514322424
0	3108	15803.766883218111	2.786393814057
0	3109	15806.883199930258	3.116316712147
0	3116	15820.195276175494	13.312076245236
0	3119	15847.308058409115	27.112782233621
0	3124	15854.963751651802	7.655693242687
0	3131	15892.923419263942	37.95966761214
0	3132	15897.363974849054	4.440555585112
0	3133	15906.030967273306	8.666992424252
0	3140	15935.882996659946	29.85202938664
0	3141	15945.858125658394	9.975128998448
0	3148	15964.391249287501	18.533123629107
0	3152	15985.483790587575	21.092541300074
0	3156	15999.223320754311	13.739530166736
0	3159	16015.582175326079	16.358854571768
0	3164	16037.723287603363	22.141112277284
0	3171	16068.587194804201	30.863907200838
0	3175	16092.175484776611	23.58828997241
0	3179	16104.2795542819	12.104069505289
0	3180	16108.397499913798	4.117945631898
0	3184	16132.175021104955	23.777521191157
0	3191	16148.352224416973	16.177203312018
0	3192	16162.035333181299	13.683108764326
0	3199	16182.76944807203	20.734114890731
0	3206	16223.494442056351	40.724993984321
0	3213	16261.629227707698	38.134785651347
0	3220	16290.438667759145	28.809440051447
0	3221	16300.914427147678	10.475759388533
0	3227	16314.292113255344	13.377686107666
0	3228	16319.141425088103	4.849311832759
0	3230	16329.124424480304	9.982999392201
0	3237	16362.256872194853	33.132447714549
0	3244	16392.863081294389	30.606209099536
0	3250	16440.921837210867	48.058755916478
0	3253	16519.178290544165	78.256453333298
0	3255	16523.585179362036	4.406888817871
0	3256	16524.432992621384	0.847813259348
0	3258	16540.545471625987	16.112479004603
0	3264	16564.543256180427	23.99778455444
0	3266	16583.164388638589	18.621132458162
0	3270	16592.756381180322	9.591992541733
0	3274	16602.386963580796	9.630582400474
0	3282	16659.705954042441	57.318990461645
0	3285	16672.029760148588	12.323806106147
0	3289	16716.572875698166	44.543115549578
0	3291	16731.751860924272	15.178985226106
0	3295	16790.593134970426	58.841274046154
0	3297	16801.73607309704	11.142938126614
0	3298	16804.32329653471	2.58722343767
0	3299	16805.232808903791	0.909512369081
0	3301	16817.213674387786	11.980865483995
0	3304	16826.679069088944	9.465394701158
0	3316	16893.66987559485	66.990806505906
0	3320	16937.491664755216	43.821789160366
0	3322	16951.762972663258	14.271307908042
0	3323	16952.08788523328	0.324912570022
0	3328	16973.145722797869	21.057837564589
0	3333	17004.798721457413	31.652998659544
0	3337	17050.37429943777	45.575577980357
0	3340	17109.354885174441	58.980585736671
0	3342	17126.880375040565	17.525489866124
0	3345	17145.873557556198	18.993182515633
0	3347	17153.113514069762	7.239956513564
0	3351	17175.812713104157	22.699199034395
0	3357	17221.56758982026	45.754876716103
0	3359	17227.39727611824	5.82968629798
0	3360	17227.587004679894	0.189728561654
0	3362	17246.952507136789	19.365502456895
0	3363	17247.845001790442	0.892494653653
0	3366	17255.451921124057	7.606919333615
0	3374	17291.016254396536	35.564333272479
0	3375	17297.885903600112	6.869649203576
0	3382	17326.284453107665	28.398549507553
0	3383	17329.184345164646	2.899892056981
0	3384	17335.557715882966	6.37337071832
0	3388	17345.439349913851	9.881634030885
0	3392	17357.916194307401	12.47684439355
0	3399	17393.709958628043	35.793764320642
0	3400	17396.930559438983	3.22060081094
0	3407	17433.603167315842	36.672607876859
0	3408	17435.223046417814	1.619879101972
0	3411	17446.583368001897	11.360321584083
0	3415	17452.19622118046	5.612853178563
0	3423	17490.209887190533	38.013666010073
0	3430	17531.348186201303	41.13829901077
0	3431	17534.853760957919	3.505574756616
0	3438	17566.031481011849	31.17772005393
0	3439	17577.328884147527	11.297403135678
0	3446	17608.060782792713	30.731898645186
0	3452	17628.400905348933	20.34012255622
0	3459	17746.914130484355	118.51322513542
0	3462	17814.616277070888	67.702146586533
0	3463	17815.607516370423	0.991239299535
0	3465	17818.655706476114	3.048190105691
0	3466	17820.891065419893	2.235358943779
0	3468	17824.140606514193	3.2495410943
0	3469	17826.257585037126	2.116978522933
0	3470	17845.475773856877	19.218188819751
0	3471	17847.63838557573	2.162611718853
0	3474	17850.576185556335	2.937799980605
0	3478	17855.661417253691	5.085231697356
0	3486	17910.429853329744	54.768436076053
0	3496	17951.326715233063	40.896861903319
0	3500	17970.828342836443	19.50162760338
0	3507	18004.359548484295	33.531205647852
0	3516	18070.370373543258	66.010825058963
0	3518	18098.385743408083	28.015369864825
0	3519	18102.26236081411	3.876617406027
0	3524	18111.948236517125	9.685875703015
0	3529	18159.847853882834	47.899617365709
0	3530	18162.155305297649	2.307451414815
0	3532	18164.430753743041	2.275448445392
0	3536	18180.065277609897	15.634523866856
0	3537	18183.179385798698	3.114108188801
0	3546	18229.166906748009	45.987520949311
0	3552	18263.790854284614	34.623947536605
0	3554	18270.569832711678	6.778978427064
0	3559	18306.470544129278	35.9007114176
0	3561	18310.544078935578	4.0735348063
0	3564	18314.748007928627	4.203928993049
0	3566	18322.993345473291	8.245337544664
0	3567	18323.280298356091	0.2869528828
0	3568	18336.185415196083	12.905116839992
0	3581	18400.707385201472	64.521970005389
0	3584	18406.351819750099	5.644434548627
0	3585	18408.209540893725	1.857721143626
0	3593	18454.924376888091	46.714835994366
0	3598	18480.609788873829	25.685411985738
0	3600	18490.995871226442	10.386082352613
0	3603	18496.457893472267	5.462022245825
0	3608	18518.985021919998	22.527128447731
0	3612	18536.50584429895	17.520822378952
0	3616	18558.035579669774	21.529735370824
0	3617	18560.033678654367	1.998098984593
0	3620	18568.015754899304	7.982076244937
0	3622	18576.655313551725	8.639558652421
0	3629	18612.374144016579	35.718830464854
0	3633	18617.311539505822	4.937395489243
0	3636	18641.184999601674	23.873460095852
0	3643	18671.518308797381	30.333309195707
0	3650	18720.309757870501	48.79144907312
0	3651	18721.017334634018	0.707576763517
0	3654	18731.670504806933	10.653170172915
0	3655	18740.830645956464	9.160141149531
0	3662	18776.024128068484	35.19348211202
0	3667	18795.197534964588	19.173406896104
0	3671	18874.634523166196	79.436988201608
0	3673	18880.322966320826	5.68844315463
0	3675	18894.269878348868	13.946912028042
0	3681	18942.163156280141	47.893277931273
0	3683	18953.948148449692	11.784992169551
0	3685	18974.888709348296	20.940560898604
0	3690	18992.526467079228	17.637757730932
0	3693	19013.939541074443	21.413073995215
0	3696	19039.705449941528	25.765908867085
0	3699	19064.291830192402	24.586380250874
0	3702	19085.836678320827	21.544848128425
0	3704	19096.818504936473	10.981826615646
0	3708	19119.621759705491	22.803254769018
0	3713	19134.128835700903	14.507075995412
0	3716	19161.525868615861	27.397032914958
0	3719	19190.177593056106	28.651724440245
0	3722	19197.097982902904	6.920389846798
0	3724	19209.180790749219	12.082807846315
0	3729	19236.211419466983	27.030628717764
0	3731	19243.959801005556	7.748381538573
0	3735	19260.897558099878	16.937757094322
0	3739	19281.223864920876	20.326306820998
0	3743	19290.380069255761	9.156204334885
0	3744	19302.301102361666	11.921033105905
0	3745	19307.434440513396	5.13333815173
0	3748	19312.555593246496	5.1211527331
0	3753	19339.251814728801	26.696221482305
0	3760	19366.157490491462	26.905675762661
0	3761	19372.626362312528	6.468871821066
0	3768	19390.686559559778	18.06019724725
0	3775	19441.37885201329	50.692292453512
0	3780	19456.115939870109	14.737087856819
0	3782	19473.221784475693	17.105844605584
0	3787	19508.342852026194	35.121067550501
0	3791	19554.966594137856	46.623742111662
0	3793	19568.837963960505	13.871369822649
0	3796	19600.54290901463	31.704945054125
0	3800	19636.602115435432	36.059206420802
0	3803	19680.430452839947	43.828337404515
0	3805	19685.077482063072	4.647029223125
0	3809	19727.060583887702	41.98310182463
0	3810	19729.276558906506	2.215975018804
0	3812	19733.806148695454	4.529589788948
0	3814	19745.852815608131	12.046666912677
0	3821	19788.445342807558	42.592527199427
0	3826	19819.060880862647	30.615538055089
0	3827	19820.797423776148	1.736542913501
0	3832	19842.641531953096	21.844108176948
0	3833	19847.381231921358	4.739699968262
0	3836	19858.871174258105	11.489942336747
0	3844	19896.541496888374	37.670322630269
0	3847	19899.643598674573	3.102101786199
0	3852	19944.84566389545	45.202065220877
0	3854	19950.364557860641	5.518893965191
0	3857	19963.505988628643	13.141430768002
0	3859	19970.075150664659	6.569162036016
0	3860	19970.154747794459	0.0795971298
0	3870	20033.130646986487	62.975899192028
0	3876	20085.581212771664	52.450565785177
0	3878	20091.419204880377	5.837992108713
0	3879	20093.670706775082	2.251501894705
0	3885	20147.123775935457	53.453069160375
0	3888	20158.780480351992	11.656704416535
0	3892	20224.159926666085	65.379446314093
0	3894	20234.776672252912	10.616745586827
0	3897	20265.928863389932	31.15219113702
0	3900	20282.228246731208	16.299383341276
0	3903	20308.111130335251	25.882883604043
0	3906	20325.42886661046	17.317736275209
0	3909	20344.464266662035	19.035400051575
0	3911	20350.117731523374	5.653464861339
0	3914	20365.861908361653	15.744176838279
0	3919	20384.631678228883	18.76976986723
0	3924	20432.138547904655	47.506869675772
0	3926	20432.688848431983	0.550300527328
0	3929	20441.095299265164	8.406450833181
0	3934	20472.513581354092	31.418282088928
0	3937	20498.395915393976	25.882334039884
0	3939	20504.436201003623	6.040285609647
0	3942	20510.637564608354	6.201363604731
0	3944	20515.373901310962	4.736336702608
0	3945	20523.298196337586	7.924295026624
0	3955	20567.846978110806	44.54878177322
0	3956	20575.058123784463	7.211145673657
0	3963	20612.501615885963	37.4434921015
0	3964	20613.756284544575	1.254668658612
0	3970	20631.973352420697	18.217067876122
0	3972	20637.100775609698	5.127423189001
0	3973	20650.879489469614	13.778713859916
0	3979	20664.192942551541	13.313453081927
0	3980	20665.27317699076	1.080234439219
0	3982	20667.726470578015	2.453293587255
0	3983	20675.475288396752	7.748817818737
0	3990	20722.052148402964	46.576860006212
0	3993	20726.702550295337	4.650401892373
0	3998	20746.56759923551	19.865048940173
0	4005	20765.728305632639	19.160706397129
0	4012	20807.233322235404	41.505016602765
0	4013	20812.589325046089	5.356002810685
0	4014	20823.356913230887	10.767588184798
0	4021	20853.967511830683	30.610598599796
0	4028	20877.410097433259	23.442585602576
0	4035	20922.086455543265	44.676358110006
0	4039	20934.25179329076	12.165337747495
0	4045	20978.677622989835	44.425829699075
0	4047	21000.119543404012	21.441920414177
0	4049	21010.35821465632	10.238671252308
0	4053	21034.617473989231	24.259259332911
0	4058	21056.746296418412	22.128822429181
0	4060	21070.206521246971	13.460224828559
0	4064	21079.204205104924	8.997683857953
0	4070	21173.089962702626	93.885757597702
0	4072	21179.440631636825	6.350668934199
0	4074	21191.396691110551	11.956059473726
0	4075	21200.558377069021	9.16168595847
0	4083	21244.993465517256	44.435088448235
0	4086	21270.93350821129	25.940042694034
0	4090	21345.896680352959	74.963172141669
0	4092	21360.401368712392	14.504688359433
0	4093	21364.980965854435	4.579597142043
0	4098	21396.607688410426	31.626722555991
0	4103	21414.180788589972	17.573100179546
0	4107	21463.045299295455	48.864510705483
0	4109	21485.735348581825	22.69004928637
0	4110	21487.646734048088	1.911385466263
0	4115	21507.411648918072	19.764914869984
0	4120	21528.428019949747	21.016371031675
0	4122	21551.334962611158	22.906942661411
0	4127	21577.973014819601	26.638052208443
0	4131	21614.191191785794	36.218176966193
0	4133	21631.001660532982	16.810468747188
0	4134	21632.154566384623	1.152905851641
0	4135	21636.356722050609	4.202155665986
0	4139	21647.79073113605	11.434009085441
0	4149	21805.63098187611	157.84025074006
0	4151	21831.942972444982	26.311990568872
0	4152	21835.52967294903	3.586700504048
0	4157	21856.09321785725	20.56354490822
0	4158	21865.979348456985	9.886130599735
0	4165	21883.626763092204	17.647414635219
0	4170	21930.972413250249	47.345650158045
0	4174	21965.009397254206	34.036984003957
0	4175	21966.066253724389	1.056856470183
0	4180	22032.874944079246	66.808690354857
0	4182	22057.751506969338	24.876562890092
0	4184	22065.222593149883	7.471086180545
0	4188	22072.25555673663	7.032963586747
0	4193	22116.880894410804	44.625337674174
0	4195	22120.588654269921	3.707759859117
0	4199	22136.526475852529	15.937821582608
0	4200	22142.478773707277	5.952297854748
0	4204	22163.646204710115	21.167431002838
0	4210	22183.278140031004	19.631935320889
0	4212	22194.520631923599	11.242491892595
0	4215	22205.099822466247	10.579190542648
0	4217	22208.845653895781	3.745831429534
0	4220	22218.323402038256	9.477748142475
0	4222	22226.005910771155	7.682508732899
0	4226	22245.488528363052	19.482617591897
0	4230	22262.225674246223	16.737145883171
0	4245	22356.836450441141	94.610776194918
0	4246	22358.737802723752	1.901352282611
0	4249	22372.505469580587	13.767666856835
0	4254	22418.516545905066	46.011076324479
0	4258	22465.794932234026	47.27838632896
0	4260	22492.817415575013	27.022483340987
0	4263	22517.862539873872	25.045124298859
0	4265	22528.43748065112	10.574940777248
0	4269	22548.440031191656	20.002550540536
0	4273	22554.651329147409	6.211297955753
0	4279	22634.243485081323	79.592155933914
0	4282	22676.670946181402	42.427461100079
0	4284	22687.48772781422	10.816781632818
0	4288	22738.885249097528	51.397521283308
0	4290	22750.286023049324	11.400773951796
0	4293	22783.405119020603	33.119095971279
0	4296	22793.434334034508	10.029215013905
0	4297	22798.947800842513	5.513466808005
0	4303	22844.76954218294	45.821741340427
0	4305	22848.298220190083	3.528678007143
0	4308	22855.824216215205	7.525996025122
0	4309	22878.715471533699	22.891255318494
0	4314	22882.04126449822	3.325792964521
0	4317	22892.308905707343	10.267641209123
0	4318	22911.667562325794	19.358656618451
0	4325	22923.077941628471	11.410379302677
0	4326	22924.073612414351	0.99567078588
0	4332	22955.386478550328	31.312866135977
0	4340	23005.13518704155	49.748708491222
0	4343	23018.107916289389	12.972729247839
0	4348	23034.88843291754	16.780516628151
0	4349	23040.260738493121	5.372305575581
0	4350	23040.535988994501	0.27525050138
0	4351	23048.019123135425	7.483134140924
0	4358	23073.956664617609	25.937541482184
0	4359	23075.977348898278	2.020684280669
0	4363	23089.565841871163	13.588492972885
0	4364	23091.316029051206	1.750187180043
0	4368	23113.870511105392	22.554482054186
0	4372	23125.794921702519	11.924410597127
0	4376	23140.462840573338	14.667918870819
0	4383	23179.651049662575	39.188209089237
0	4393	23219.247512550064	39.596462887489
0	4394	23229.25149706703	10.003984516966
0	4398	23245.314165929316	16.062668862286
0	4410	23332.364000699732	87.049834770416
0	4413	23371.228837256134	38.864836556402
0	4415	23374.346262748539	3.117425492405
0	4417	23383.163419852952	8.817157104413
0	4418	23387.45848447746	4.295064624508
0	4419	23398.032341248584	10.573856771124
0	4426	23426.132896196017	28.100554947433
0	4435	23485.328003795414	59.195107599397
0	4437	23496.692584535033	11.364580739619
0	4440	23525.551656434389	28.859071899356
0	4443	23558.624023892483	33.072367458094
0	4446	23566.57712928375	7.953105391267
0	4447	23566.828776749727	0.251647465977
0	4449	23579.611358937323	12.782582187596
0	4450	23584.875083729429	5.263724792106
0	4456	23602.509999265358	17.634915535929
0	4458	23611.247153106751	8.737153841393
0	4459	23612.430980666806	1.183827560055
0	4472	23696.318716541669	83.887735874863
0	4477	23710.03714079676	13.718424255091
0	4479	23717.819677038292	7.782536241532
0	4483	23743.067678743276	25.248001704984
0	4487	23752.282619579717	9.214940836441
0	4488	23763.125578653559	10.842959073842
0	4495	23788.619045787009	25.49346713345
0	4496	23795.132332730764	6.513286943755
0	4500	23814.552993964567	19.420661233803
0	4501	23817.819519699851	3.266525735284
0	4513	23896.380128643913	78.560608944062
0	4516	23958.991659204223	62.61153056031
0	4518	23981.194307930799	22.202648726576
0	4522	24074.642678641688	93.448370710889
0	4524	24091.318367370434	16.675688728746
0	4527	24108.437997579152	17.119630208718
0	4529	24116.665822927858	8.227825348706
0	4530	24117.564119345523	0.898296417665
0	4534	24140.079764375545	22.515645030022
0	4538	24157.014046617821	16.934282242276
0	4541	24168.321951389938	11.307904772117
0	4543	24168.61481747404	0.292866084102
0	4547	24177.106402261158	8.491584787118
0	4554	24226.09714616764	48.990743906482
0	4561	24248.917094408188	22.819948240548
0	4562	24250.2542071638	1.337112755612
0	4563	24250.973466851943	0.719259688143
0	4564	24252.637072662049	1.663605810106
0	4565	24257.751408190219	5.11433552817
0	4566	24259.518690477647	1.767282287428
0	4572	24278.311742891614	18.793052413967
0	4574	24288.1561753121	9.844432420486
0	4575	24298.502418499586	10.346243187486
0	4588	24374.186305651536	75.68388715195
0	4594	24385.55349799987	11.367192348334
0	4596	24389.404313622815	3.850815622945
0	4600	24413.157762672108	23.753449049293
0	4603	24421.768409619155	8.610646947047
0	4608	24450.037847477633	28.269437858478
0	4615	24477.14888683481	27.111039357177
0	4616	24485.226854751117	8.077967916307
0	4626	24533.065222634674	47.838367883557
0	4634	24579.791599336614	46.72637670194
0	4636	24583.301792875188	3.510193538574
0	4639	24602.244934505454	18.943141630266
0	4646	24648.179296985278	45.934362479824
0	4648	24664.552345186862	16.373048201584
0	4651	24692.206548383268	27.654203196406
0	4654	24703.131654026572	10.925105643304
0	4657	24734.258267320395	31.126613293823
0	4661	24781.004435299701	46.746167979306
0	4663	24786.632686090805	5.628250791104
0	4665	24808.046645201266	21.413959110461
0	4670	24844.536681371922	36.490036170656
0	4673	24856.206039531528	11.669358159606
0	4675	24873.137553060595	16.931513529067
0	4680	24914.506449889742	41.368896829147
0	4683	24942.841266892949	28.334817003207
0	4686	24962.892215008466	20.050948115517
0	4687	24964.656817378673	1.764602370207
0	4689	24967.00062680866	2.343809429987
0	4693	24987.715237363969	20.714610555309
0	4697	25009.727663922703	22.012426558734
0	4703	25030.282600257464	20.554936334761
0	4705	25046.856786111192	16.574185853728
0	4709	25057.045849001006	10.189062889814
0	4712	25065.647500777039	8.601651776033
0	4717	25093.849572636888	28.202071859849
0	4721	25100.524123228858	6.67455059197
0	4722	25116.820797425814	16.296674196956
0	4723	25117.658092782058	0.837295356244
0	4724	25117.804953161134	0.146860379076
0	4737	25179.637459944441	61.832506783307
0	4738	25188.213972739242	8.576512794801
0	4745	25211.780638013186	23.566665273944
0	4746	25216.70023317963	4.919595166444
0	4747	25219.147300665577	2.447067485947
0	4748	25226.293768538202	7.146467872625
0	4763	25295.311669497795	69.017900959593
0	4764	25297.721138284273	2.409468786478
0	4766	25301.838434257003	4.11729597273
0	4775	25344.018298902118	42.179864645115
0	4777	25357.4084470082	13.390148106082
0	4781	25364.289504778921	6.881057770721
0	4789	25417.13032177015	52.840816991229
0	4792	25431.102497426327	13.972175656177
0	4794	25440.239168210395	9.136670784068
0	4799	25473.932502982587	33.693334772192
0	4800	25475.280407238906	1.347904256319
0	4807	25538.059683026062	62.779275787156
0	4810	25596.91991750556	58.860234479498
0	4811	25597.63456971593	0.71465221037
0	4813	25600.639544251892	3.004974535962
0	4815	25624.335313758809	23.695769506917
0	4822	25653.179021834913	28.843708076104
0	4827	25676.545451063006	23.366429228093
0	4830	25704.802655081736	28.25720401873
0	4833	25727.576124951092	22.773469869356
0	4837	25778.986878683247	51.410753732155
0	4839	25783.052304996298	4.065426313051
0	4841	25797.003748330759	13.951443334461
0	4842	25803.545563816154	6.541815485395
0	4848	25825.461913510721	21.916349694567
0	4850	25841.702488858764	16.240575348043
0	4851	25842.546729395893	0.844240537129
0	4861	25881.899594747283	39.35286535139
0	4862	25884.477208217764	2.577613470481
0	4863	25885.247954630064	0.7707464123
0	4864	25886.229619160503	0.981664530439
0	4868	25910.787025110133	24.55740594963
0	4877	25946.090697395389	35.303672285256
0	4879	25953.176777526955	7.086080131566
0	4880	25957.887075655387	4.710298128432
0	4887	25987.247993405795	29.360917750408
0	4888	25990.003339656178	2.755346250383
0	4889	25999.64658084041	9.643241184232
0	4892	26005.994772458522	6.348191618112
0	4905	26075.595512341861	69.600739883339
0	4910	26085.08112763295	9.485615291089
0	4911	26085.567952950349	0.486825317399
0	4918	26139.028062605142	53.460109654793
0	4921	26142.360003286201	3.331940681059
0	4925	26148.035776324229	5.675773038028
0	4930	26176.88679881515	28.851022490921
0	4938	26232.909212882231	56.022414067081
0	4942	26360.671536416638	127.76232353441
0	4945	26394.277994562473	33.606458145835
0	4947	26412.069696709211	17.791702146738
0	4950	26433.061287937585	20.991591228374
0	4954	26486.003395402922	52.942107465337
0	4956	26498.953485640271	12.950090237349
0	4958	26507.138800505885	8.185314865614
0	4959	26509.703179580183	2.564379074298
0	4966	26544.794118124238	35.090938544055
0	4971	26583.006081744397	38.211963620159
0	4974	26608.337388418802	25.331306674405
0	4977	26635.665568321853	27.328179903051
0	4978	26636.353995368513	0.68842704666
0	4983	26667.874134921011	31.520139552498
0	4984	26669.415136010304	1.541001089293
0	4991	26683.017197722856	13.602061712552
0	4995	26708.652687129356	25.6354894065
0	4998	26715.133943174823	6.481256045467
0	4999	26723.103084844376	7.969141669553
0	5006	26769.328562377446	46.22547753307
0	5011	26781.099375702661	11.770813325215
0	5012	26784.06073683434	2.961361131679
0	5013	26784.3409644595	0.28022762516
0	5015	26793.047445777558	8.706481318058
0	5018	26808.376257583035	15.328811805477
0	5023	26829.436600110446	21.060342527411
0	5024	26830.276699912118	0.840099801672
0	5030	26852.738701380845	22.462001468727
0	5035	26887.603628309611	34.864926928766
0	5039	26901.426605931036	13.822977621425
0	5040	26903.170986823509	1.744380892473
0	5044	26924.309097352429	21.13811052892
0	5057	26981.878798038032	57.569700685603
0	5058	26983.874502867461	1.995704829429
0	5061	26999.835469772055	15.960966904594
0	5063	27004.189979225276	4.354509453221
0	5067	27009.827654524432	5.637675299156
0	5078	27102.518062226779	92.690407702347
0	5081	27123.095964829481	20.577902602702
0	5085	27193.056699756791	69.96073492731
0	5087	27196.862582537886	3.805882781095
0	5088	27198.31432998249	1.451747444604
0	5090	27214.38532555463	16.07099557214
0	5091	27216.726313516848	2.340987962218
0	5103	27302.843631393751	86.117317876903
0	5104	27303.630854757614	0.787223363863
0	5107	27317.258533022103	13.627678264489
0	5108	27321.329569277877	4.071036255774
0	5109	27323.125817908261	1.796248630384
0	5118	27370.849945604975	47.724127696714
0	5125	27423.757937750315	52.90799214534
0	5127	27431.432056561071	7.674118810756
0	5130	27457.53374007858	26.101683517509
0	5133	27469.066355689042	11.532615610462
0	5135	27476.481057778118	7.414702089076
0	5139	27498.308361751517	21.827303973399
0	5140	27503.161478373124	4.853116621607
0	5147	27533.85818450601	30.696706132886
0	5150	27543.593130656047	9.734946150037
0	5154	27557.438912858863	13.845782202816
0	5156	27574.431884211127	16.992971352264
0	5157	27575.548582674178	1.116698463051
0	5160	27579.948726040895	4.400143366717
0	5162	27589.143535072319	9.194809031424
0	5166	27600.195091103051	11.051556030732
0	5167	27600.33025952886	0.135168425809
0	5168	27609.290010682799	8.959751153939
0	5172	27621.597648927427	12.307638244628
0	5173	27621.935997947863	0.338349020436
0	5177	27635.91064587611	13.974647928247
0	5178	27649.180125679421	13.269479803311
0	5185	27659.981788955429	10.801663276008
0	5186	27671.044094390289	11.06230543486
0	5193	27700.285140855745	29.241046465456
0	5199	27728.271635944404	27.986495088659
0	5201	27737.933847834418	9.662211890014
0	5202	27737.965375113033	0.031527278615
0	5212	27795.852040215297	57.886665102264
0	5216	27808.510531963551	12.658491748254
0	5217	27817.711251885172	9.200719921621
0	5224	27851.076393736768	33.365141851596
0	5240	27928.668587749632	77.592194012864
0	5241	27933.660771206381	4.992183456749
0	5245	27948.446398297561	14.78562709118
0	5249	27966.765797726579	18.319399429018
0	5250	27968.379649877365	1.613852150786
0	5263	28024.493267799108	56.113617921743
0	5264	28026.08814797672	1.594880177612
0	5265	28027.750222705091	1.662074728371
0	5272	28062.350160136433	34.599937431342
0	5275	28085.95770599231	23.607545855877
0	5280	28091.318821104897	5.361115112587
0	5287	28130.817306570394	39.498485465497
0	5291	28153.441319526076	22.624012955682
0	5296	28220.601208125693	67.159888599617
0	5298	28232.769839906148	12.168631780455
0	5299	28232.801627043601	0.031787137453
0	5300	28233.243939404054	0.442312360453
0	5305	28258.776546599423	25.532607195369
0	5313	28309.28402800444	50.507481405017
0	5315	28316.971063233106	7.687035228666
0	5320	28351.416223422311	34.445160189205
0	5321	28351.999236416555	0.583012994244
0	5326	28371.141459665902	19.142223249347
0	5327	28373.05452510868	1.913065442778
0	5334	28399.497031908301	26.442506799621
0	5339	28437.764378920145	38.267347011844
0	5340	28442.123722756907	4.359343836762
0	5342	28447.85545470297	5.731731946063
0	5349	28484.148897947489	36.293443244519
0	5353	28498.279709442396	14.130811494907
0	5354	28502.54165123646	4.261941794064
0	5357	28509.718740261066	7.177089024606
0	5362	28532.894167031369	23.175426770303
0	5369	28570.796957073958	37.902790042589
0	5370	28574.883891046716	4.086933972758
0	5376	28586.887818675013	12.003927628297
0	5378	28600.840758846085	13.952940171072
0	5381	28615.501664231021	14.660905384936
0	5386	28643.736217109302	28.234552878281
0	5387	28646.880974357062	3.14475724776
0	5393	28657.991974213922	11.11099985686
0	5395	28667.936534249098	9.944560035176
0	5396	28679.588826092096	11.652291842998
0	5399	28683.110808519298	3.521982427202
0	5400	28683.433366832917	0.322558313619
0	5405	28709.542067935892	26.108701102975
0	5409	28719.177487177844	9.635419241952
0	5410	28719.588759150872	0.411271973028
0	5413	28726.580566289176	6.991807138304
0	5424	28792.128488361839	65.547922072663
0	5425	28795.437393781319	3.30890541948
0	5432	28827.572967134126	32.135573352807
0	5435	28839.432641301837	11.859674167711
0	5437	28842.975456538597	3.54281523676
0	5441	28856.291725155219	13.316268616622
0	5442	28864.813360770217	8.521635614998
0	5445	28870.420381768772	5.607020998555
0	5446	28874.39328089309	3.972899124318
0	5451	28882.191725868355	7.798444975265
0	5464	28951.661420488924	69.469694620569
0	5465	28956.82898401284	5.167563523916
0	5472	28988.525561841771	31.696577828931
0	5475	29012.377714041068	23.852152199297
0	5483	29047.132398497306	34.754684456238
0	5486	29056.884243765624	9.751845268318
0	5494	29104.58020596757	47.695962201946
0	5500	29124.679430284991	20.099224317421
0	5505	29159.290405952881	34.61097566789
0	5509	29173.380394390409	14.089988437528
0	5510	29175.735172962025	2.354778571616
0	5516	29196.960113418449	21.224940456424
0	5520	29209.940124977825	12.980011559376
0	5522	29224.602506692956	14.662381715131
0	5525	29236.820998349448	12.218491656492
0	5535	29340.669795126116	103.84879677667
0	5538	29408.42282316784	67.753028041724
0	5541	29467.678793127243	59.255969959403
0	5543	29495.985616058165	28.306822930922
0	5546	29510.627258081957	14.641642023792
0	5547	29513.122872848685	2.495614766728
0	5549	29518.565366973321	5.442494124636
0	5550	29518.792114831572	0.226747858251
0	5551	29519.129838460191	0.337723628619
0	5558	29560.446613877962	41.316775417771
0	5569	29620.515156796858	60.068542918896
0	5573	29674.606406034371	54.091249237513
0	5575	29689.755191033873	15.148784999502
0	5576	29693.386874214814	3.631683180941
0	5578	29705.248744402414	11.8618701876
0	5587	29766.324280322787	61.075535920373
0	5589	29772.422893615566	6.098613292779
0	5593	29815.629249790667	43.206356175101
0	5596	29851.990278019723	36.361028229056
0	5598	29856.685069121071	4.694791101348
0	5602	29995.788576978018	139.10350785695
0	5604	30012.205654857983	16.417077879965
0	5607	30044.06364712899	31.857992271007
0	5608	30046.165120616348	2.101473487358
0	5615	30089.918458247202	43.753337630854
0	5618	30158.38178871743	68.463330470228
0	5620	30166.535999997652	8.154211280222
0	5621	30168.938582101133	2.402582103481
0	5622	30171.38509247102	2.446510369887
0	5624	30181.834954622398	10.449862151378
0	5633	30224.556354015335	42.721399392937
0	5638	30251.027824826674	26.471470811339
0	5642	30270.224677054813	19.196852228139
0	5645	30281.088486937899	10.863809883086
0	5650	30306.270560303724	25.182073365825
0	5656	30383.964490792575	77.693930488851
0	5659	30425.503980162257	41.539489369682
0	5661	30433.391037916614	7.887057754357
0	5663	30448.217123478173	14.826085561559
0	5664	30448.94203193823	0.724908460057
0	5668	30461.230829148936	12.288797210706
0	5669	30465.026999267453	3.796170118517
0	5670	30466.795379366071	1.768380098618
0	5671	30469.306424311686	2.511044945615
0	5675	30481.757582310673	12.451157998987
0	5679	30503.939451005117	22.181868694444
0	5680	30504.168944410741	0.229493405624
0	5681	30504.416996230333	0.248051819592
0	5684	30511.126237414999	6.709241184666
0	5701	30594.737724089857	83.611486674858
0	5702	30600.503426971236	5.765702881379
0	5703	30614.897937831627	14.394510860391
0	5709	30624.909310544739	10.011372713112
0	5711	30650.893415337647	25.984104792908
0	5718	30662.637886556291	11.744471218644
0	5719	30673.483088561806	10.845202005515
0	5726	30696.277256912224	22.794168350418
0	5727	30698.646410200856	2.369153288632
0	5728	30702.3244477517	3.678037550844
0	5729	30709.044612314895	6.720164563195
0	5742	30770.502520688883	61.457908373988
0	5749	30807.537608850002	37.035088161119
0	5755	30835.139648446049	27.602039596047
0	5757	30839.32117379331	4.181525347261
0	5761	30859.968734076605	20.647560283295
0	5762	30866.789730116686	6.820996040081
0	5766	30885.566496671915	18.776766555229
0	5772	30910.328353293542	24.761856621627
0	5784	30979.552637269961	69.224283976419
0	5787	31000.923995074187	21.371357804226
0	5790	31025.852642624482	24.928647550295
0	5793	31035.60057997813	9.747937353648
0	5795	31048.635316584988	13.034736606858
0	5796	31054.880517117728	6.24520053274
0	5799	31067.486912508099	12.606395390371
0	5808	31128.454818264451	60.967905756352
0	5809	31130.172508417567	1.717690153116
0	5814	31152.063376827812	21.890868410245
0	5815	31158.801792270569	6.738415442757
0	5819	31166.649588970694	7.847796700125
0	5823	31180.583938141572	13.934349170878
0	5824	31184.491340561798	3.907402420226
0	5836	31278.358203966927	93.866863405129
0	5838	31302.082416855699	23.724212888772
0	5839	31302.891966665813	0.809549810114
0	5845	31341.778264421205	38.886297755392
0	5848	31360.407712970523	18.629448549318
0	5850	31364.126632444851	3.718919474328
0	5855	31395.814477916099	31.687845471248
0	5858	31416.995002412714	21.180524496615
0	5860	31423.236867488491	6.241865075777
0	5866	31469.969603782916	46.732736294425
0	5868	31474.019094540379	4.049490757463
0	5870	31482.35960838712	8.340513846741
0	5871	31491.996669083086	9.637060695966
0	5878	31529.581857795337	37.585188712251
0	5883	31548.036833216269	18.454975420932
0	5885	31555.746065861514	7.709232645245
0	5886	31562.392434118663	6.646368257149
0	5889	31571.564955173609	9.172521054946
0	5897	31618.386582134571	46.821626960962
0	5902	31647.276835503261	28.89025336869
0	5904	31655.847896606794	8.571061103533
0	5908	31668.301102736126	12.453206129332
0	5912	31683.814801147153	15.513698411027
0	5915	31695.230865199974	11.416064052821
0	5917	31707.889633276141	12.658768076167
0	5918	31708.938370579488	1.048737303347
0	5922	31727.284294316536	18.345923737048
0	5926	31746.45668978532	19.172395468784
0	5935	31782.757564977684	36.300875192364
0	5941	31822.763792362277	40.006227384593
0	5944	31841.823661375366	19.059869013089
0	5945	31846.939339051066	5.1156776757
0	5950	31867.340608147801	20.401269096735
0	5951	31877.471808298473	10.131200150672
0	5955	31884.892454003644	7.420645705171
0	5959	31909.633272802391	24.740818798747
0	5966	31925.84809184844	16.214819046049
0	5967	31926.051154885838	0.203063037398
0	5974	31983.903824077293	57.852669191455
0	5980	32028.322690735919	44.418866658626
0	5982	32050.692208579855	22.369517843936
0	5985	32081.333922765089	30.641714185234
0	5986	32082.146406430345	0.812483665256
0	5991	32096.124954851582	13.978548421237
0	5992	32104.063530230143	7.938575378561
0	5995	32115.945552546384	11.882022316241
0	6000	32145.291303177023	29.345750630639
0	6007	32168.116727305824	22.825424128801
0	6012	32201.292834820169	33.176107514345
0	6015	32229.223853528346	27.931018708177
0	6019	32276.015840414978	46.791986886632
0	6022	32309.739402377805	33.723561962827
0	6024	32330.493868197725	20.75446581992
0	6026	32338.063359157279	7.569490959554
0	6030	32359.535497519977	21.472138362698
0	6034	32373.152286999506	13.616789479529
0	6035	32373.676062226947	0.523775227441
0	6043	32431.104926535103	57.428864308156
0	6046	32453.258593657402	22.153667122299
0	6048	32460.644794370377	7.386200712975
0	6052	32469.389426380182	8.744632009805
0	6053	32484.564800526025	15.175374145843
0	6054	32487.207591369592	2.642790843567
0	6057	32489.864849766419	2.657258396827
0	6064	32527.896920776558	38.032071010139
0	6069	32547.033203455442	19.136282678884
0	6070	32560.731112530975	13.697909075533
0	6077	32578.350326233607	17.619213702632
0	6084	32612.256196411011	33.905870177404
0	6085	32613.354893071486	1.098696660475
0	6086	32623.331575810957	9.976682739471
0	6087	32623.695134118023	0.363558307066
0	6093	32634.497476486524	10.802342368501
0	6094	32635.244675547483	0.747199060959
0	6095	32639.301110226125	4.056434678642
0	6097	32647.789064181843	8.487953955718
0	6098	32659.572214561273	11.78315037943
0	6105	32679.390482943518	19.818268382245
0	6106	32688.642999790064	9.252516846546
0	6113	32724.816208747897	36.173208957833
0	6114	32726.300570546242	1.484361798345
0	6123	32762.066142395857	35.765571849615
0	6133	32819.403676847149	57.337534451292
0	6138	32832.689336246116	13.285659398967
0	6145	32880.985241204269	48.295904958153
0	6146	32882.54153542572	1.556294221451
0	6153	32915.782081538066	33.240546112346
0	6158	32925.757622445831	9.975540907765
0	6166	33024.745983128875	98.988360683044
0	6168	33029.116934037088	4.370950908213
0	6172	33097.80984000044	68.692905963352
0	6175	33137.821817165077	40.011977164637
0	6177	33142.235006147606	4.413188982529
0	6179	33169.319299333218	27.084293185612
0	6184	33202.32026311515	33.000963781932
0	6187	33216.562289834471	14.242026719321
0	6189	33234.49940479969	17.937114965219
0	6194	33249.853292746666	15.353887946976
0	6196	33255.310073182869	5.456780436203
0	6199	33276.307094546097	20.997021363228
0	6204	33300.722077219831	24.414982673734
0	6209	33320.656868049288	19.934790829457
0	6212	33349.118761511342	28.461893462054
0	6213	33350.843541388216	1.724779876874
0	6218	33368.945872678727	18.102331290511
0	6219	33382.738707571289	13.792834892562
0	6226	33409.801403245241	27.062695673952
0	6227	33417.340654784715	7.539251539474
0	6234	33428.706557504332	11.365902719617
0	6237	33454.108102981193	25.401545476861
0	6242	33466.094395125534	11.986292144341
0	6246	33490.369961322673	24.275566197139
0	6250	33511.343342646458	20.973381323785
0	6255	33547.035720728335	35.692378081877
0	6257	33552.868006932846	5.832286204511
0	6262	33597.590263178676	44.72225624583
0	6264	33625.334081628084	27.743818449408
0	6268	33675.891424443199	50.557342815115
0	6270	33693.045120141018	17.153695697819
0	6271	33694.637456384062	1.592336243044
0	6276	33717.130096672167	22.492640288105
0	6277	33720.087421499591	2.957324827424
0	6278	33722.810898310429	2.723476810838
0	6281	33729.873464961007	7.062566650578
0	6285	33742.211875302304	12.338410341297
0	6293	33782.213214729012	40.001339426708
0	6294	33785.590828980499	3.377614251487
0	6295	33797.500926841861	11.910097861362
0	6302	33817.496305384381	19.99537854252
0	6303	33825.100967219565	7.604661835184
0	6316	33885.19478674866	60.093819529095
0	6317	33894.472632296214	9.277845547554
0	6324	33936.13751154996	41.664879253746
0	6329	33952.603665420327	16.466153870367
0	6330	33953.470923392101	0.867257971774
0	6332	33969.895843901659	16.424920509558
0	6339	34000.62751122455	30.731667322891
0	6343	34016.865356635844	16.237845411294
0	6344	34018.781784745886	1.916428110042
0	6347	34028.481272275702	9.699487529816
0	6348	34029.520571243258	1.039298967556
0	6350	34039.594073843017	10.073502599759
0	6354	34047.744195463432	8.150121620415
0	6355	34049.484846469922	1.74065100649
0	6356	34056.756254311592	7.27140784167
0	6371	34132.917365607142	76.16111129555
0	6376	34150.547329315623	17.629963708481
0	6377	34150.977602979163	0.43027366354
0	6378	34163.347871025811	12.370268046648
0	6383	34174.109008292365	10.761137266554
0	6386	34185.229693450726	11.120685158361
0	6389	34204.586074073563	19.356380622837
0	6394	34215.047633130527	10.461559056964
0	6401	34262.254425993972	47.206792863445
0	6405	34275.773926728337	13.519500734365
0	6409	34301.016899610588	25.242972882251
0	6410	34303.734769556226	2.717869945638
0	6411	34305.309427756333	1.574658200107
0	6417	34315.972554688457	10.663126932124
0	6425	34359.861319138312	43.888764449855
0	6436	34421.416294539223	61.554975400911
0	6439	34441.458263346264	20.041968807041
0	6441	34456.089372550618	14.631109204354
0	6446	34489.054091045759	32.964718495141
0	6449	34505.934100357658	16.880009311899
0	6453	34552.277933866042	46.343833508384
0	6455	34561.394929959305	9.116996093263
0	6457	34573.888212008916	12.493282049611
0	6462	34609.308032613809	35.419820604893
0	6463	34614.082410051224	4.774377437415
0	6470	34651.112073762795	37.029663711571
0	6472	34655.765368887188	4.653295124393
0	6474	34669.057990216459	13.292621329271
0	6475	34680.316337558258	11.258347341799
0	6481	34696.793100413016	16.476762854758
0	6488	34807.181409434591	110.38830902157
0	6490	34818.74362062926	11.562211194669
0	6492	34826.780325068294	8.036704439034
0	6493	34834.230044481634	7.44971941334
0	6494	34839.052133100548	4.822088618914
0	6505	34902.993487329239	63.941354228691
0	6508	34913.675590423004	10.682103093765
0	6510	34918.114336803835	4.438746380831
0	6513	34940.821562118157	22.707225314322
0	6518	34962.23848118941	21.416919071253
0	6521	34976.088112799812	13.849631610402
0	6526	34991.589980454786	15.501867654974
0	6531	35018.114310405308	26.524329950522
0	6533	35021.625412410789	3.511102005481
0	6534	35034.8091913474	13.183778936611
0	6541	35064.015386677998	29.206195330598
0	6542	35080.586032683057	16.570646005059
0	6549	35101.587293266818	21.001260583761
0	6550	35110.382310848643	8.795017581825
0	6551	35114.626138632293	4.24382778365
0	6558	35127.151146207691	12.525007575398
0	6559	35132.982137346894	5.830991139203
0	6560	35135.675671993466	2.693534646572
0	6567	35166.451642694309	30.775970700843
0	6568	35180.479350006468	14.027707312159
0	6574	35190.965350384121	10.486000377653
0	6575	35192.621588588728	1.656238204607
0	6576	35195.113005935487	2.491417346759
0	6578	35201.991553571577	6.87854763609
0	6579	35204.223088071412	2.231534499835
0	6586	35241.14841764393	36.925329572518
0	6590	35261.357436809038	20.209019165108
0	6594	35272.400384912971	11.042948103933
0	6595	35278.035089998558	5.634705085587
0	6599	35294.265422888891	16.230332890333
0	6602	35302.973084668475	8.707661779584
0	6607	35332.991021429974	30.017936761499
0	6611	35342.062142685396	9.071121255422
0	6612	35342.682723383194	0.620580697798
0	6613	35348.888315154023	6.205591770829
0	6617	35363.286917982467	14.398602828444
0	6624	35390.222235058292	26.935317075825
0	6625	35402.755656056197	12.533420997905
0	6638	35472.825334956774	70.069678900577
0	6651	35524.033758721293	51.208423764519
0	6652	35544.944013200176	20.910254478883
0	6659	35558.151823439941	13.207810239765
0	6666	35602.425645700929	44.273822260988
0	6667	35603.59623149656	1.170585795631
0	6673	35623.940212960848	20.343981464288
0	6675	35633.384950696459	9.444737735611
0	6676	35637.080613701893	3.695663005434
0	6683	35667.319521199646	30.238907497753
0	6684	35673.104518396941	5.784997197295
0	6697	35743.609293474375	70.504775077434
0	6702	35777.476203006867	33.866909532492
0	6705	35785.261467213717	7.78526420685
0	6708	35818.291911702396	33.030444488679
0	6712	35879.360633881036	61.06872217864
0	6714	35890.651467920475	11.290834039439
0	6716	35897.146108853538	6.494640933063
0	6720	35914.52610959551	17.380000741972
0	6723	35931.293765277794	16.767655682284
0	6725	35939.289394030349	7.995628752555
0	6729	35959.589058385648	20.299664355299
0	6737	35999.196350129289	39.607291743641
0	6741	36048.223658374889	49.0273082456
0	6743	36059.407593568587	11.183935193698
0	6746	36087.244660437802	27.837066869215
0	6747	36090.194697883066	2.950037445264
0	6754	36148.558609523377	58.363911640311
0	6756	36153.693765515583	5.135155992206
0	6758	36169.282516837657	15.588751322074
0	6762	36184.906250446884	15.623733609227
0	6766	36207.432933163009	22.526682716125
0	6767	36212.917023653917	5.484090490908
0	6770	36217.043727859104	4.126704205187
0	6772	36222.080129077542	5.036401218438
0	6775	36228.35241588392	6.272286806378
0	6777	36239.049965633875	10.697549749955
0	6778	36244.545671157302	5.495705523427
0	6782	36251.751189405544	7.205518248242
0	6783	36256.820884584318	5.069695178774
0	6786	36263.43091063798	6.610026053662
0	6788	36267.995518721067	4.564608083087
0	6792	36294.037883630272	26.042364909205
0	6796	36305.073479012637	11.035595382365
0	6797	36309.778800107559	4.705321094922
0	6801	36333.6960002329	23.917200125341
0	6807	36346.856300422332	13.160300189432
0	6811	36371.925239609825	25.068939187493
0	6821	36415.226661371278	43.301421761453
0	6823	36419.485193085869	4.258531714591
0	6824	36423.605506124025	4.120313038156
0	6831	36472.87229223968	49.266786115655
0	6832	36476.507007545519	3.634715305839
0	6844	36517.233716544278	40.726708998759
0	6848	36547.929654567842	30.695938023564
0	6853	36558.708310408825	10.778655840983
0	6854	36571.501005592523	12.792695183698
0	6858	36582.122862280494	10.621856687971
0	6861	36588.659224920812	6.536362640318
0	6863	36593.952850350271	5.293625429459
0	6864	36596.85129505719	2.898444706919
0	6865	36607.620267652626	10.768972595436
0	6868	36612.372215280373	4.751947627747
0	6872	36625.284640755874	12.912425475501
0	6873	36627.043445486357	1.758804730483
0	6878	36650.606417446861	23.562971960504
0	6881	36659.789038336631	9.18262088977
0	6883	36665.294750862003	5.505712525372
0	6884	36675.772790645383	10.47803978338
0	6888	36690.392694929119	14.619904283736
0	6895	36723.391472455924	32.998777526805
0	6899	36737.592374792577	14.200902336653
0	6906	36775.584227384536	37.991852591959
0	6910	36794.465266977913	18.881039593377
0	6911	36800.687788219989	6.222521242076
0	6924	36871.048405213152	70.360616993163
0	6931	36889.107676381185	18.059271168033
0	6932	36889.443484974074	0.335808592889
0	6939	36920.341920032217	30.898435058143
0	6940	36934.326622245441	13.984702213224
0	6941	36936.324463820136	1.997841574695
0	6947	36946.61442729335	10.289963473214
0	6949	36965.610456678612	18.996029385262
0	6956	36991.335105959045	25.724649280433
0	6957	36999.17368091876	7.838574959715
0	6964	37032.837312925295	33.663632006535
0	6967	37037.284928198956	4.447615273661
0	6975	37076.102851173239	38.817922974283
0	6988	37152.380534261195	76.277683087956
0	6989	37160.503885778072	8.123351516877
0	6992	37163.071762807976	2.567877029904
0	6997	37194.025221386458	30.953458578482
0	6998	37195.713859368522	1.688637982064
0	7005	37206.826441982483	11.112582613961
0	7006	37225.737950950135	18.911508967652
0	7011	37237.716292646695	11.97834169656
0	7014	37240.32522421339	2.608931566695
0	7015	37267.323723971728	26.998499758338
0	7022	37282.918573008184	15.594849036456
0	7023	37290.714909210255	7.796336202071
0	7030	37313.708055005395	22.99314579514
0	7031	37321.896758985553	8.188703980158
0	7038	37347.479416193507	25.582657207954
0	7048	37411.535276903196	64.055860709689
0	7055	37449.336215212057	37.800938308861
0	7064	37501.205561732413	51.869346520356
0	7067	37565.198355381429	63.992793649016
0	7069	37593.680606658391	28.482251276962
0	7073	37631.363232534518	37.682625876127
0	7075	37650.270811848903	18.907579314385
0	7076	37653.891416311584	3.620604462681
0	7081	37676.52723098842	22.635814676836
0	7082	37680.310156879516	3.782925891096
0	7086	37692.974097355625	12.663940476109
0	7090	37719.397448416556	26.423351060931
0	7091	37722.784292802143	3.386844385587
0	7098	37744.16687073732	21.382577935177
0	7099	37753.280395745839	9.113525008519
0	7109	37800.616809289731	47.336413543892
0	7113	37832.706998561248	32.090189271517
0	7117	37879.661762335537	46.954763774289
0	7119	37884.802553399093	5.140791063556
0	7123	37942.598320431224	57.795767032131
0	7126	37987.588456494286	44.990136063062
0	7127	37988.04593358729	0.457477093004
0	7129	37991.99216775948	3.94623417219
0	7131	37999.007886282247	7.015718522767
0	7132	38002.747736489971	3.739850207724
0	7133	38009.353187060744	6.605450570773
0	7140	38046.793013618632	37.439826557888
0	7152	38120.676402647418	73.883389028786
0	7153	38121.026324265214	0.349921617796
0	7154	38123.003383219004	1.97705895379
0	7161	38174.7567310821	51.753347863096
0	7164	38205.059748129811	30.303017047711
0	7168	38242.17320944118	37.113461311369
0	7170	38245.945309219231	3.772099778051
0	7171	38249.505679070608	3.560369851377
0	7173	38256.462880421215	6.957201350607
0	7174	38274.269185653491	17.806305232276
0	7181	38296.432124538967	22.162938885476
0	7182	38305.113720412779	8.681595873812
0	7192	38347.335354337053	42.221633924274
0	7196	38365.774693008312	18.439338671259
0	7197	38368.596526285141	2.821833276829
0	7198	38369.239499698371	0.64297341323
0	7199	38374.826168318168	5.586668619797
0	7206	38398.403437576257	23.577269258089
0	7210	38422.823487177954	24.420049601697
0	7217	38456.776356695731	33.952869517777
0	7224	38482.193647180583	25.417290484852
0	7225	38487.951331934431	5.757684753848
0	7226	38490.471587314455	2.520255380024
0	7227	38494.879050199405	4.40746288495
0	7234	38514.983732138101	20.104681938696
0	7235	38527.398590214709	12.414858076608
0	7236	38528.852193146146	1.453602931437
0	7243	38564.626814576537	35.774621430391
0	7244	38566.051484829021	1.424670252484
0	7247	38571.140188278604	5.088703449583
0	7252	38599.914169795605	28.773981517001
0	7259	38617.633846761304	17.719676965699
[...]
4	5426	28797.039524758578	1
4	5429	28812.757469885282	0
4	5433	28833.877095865479	1
4	5438	28846.036206845534	0
4	5443	28870.363063665027	1
4	5448	28879.0457749061	0
4	5452	28907.182853109967	1
4	5454	28911.631164617243	0
4	5458	28943.195516940275	1
4	5460	28945.359372587273	0
4	5466	28977.43826112157	0
4	5468	28979.294656229423	1
4	5473	29010.062350540054	0
4	5477	29015.171359995773	1
4	5480	29043.244785851293	0
4	5484	29051.091397339624	1
4	5488	29076.311735228619	0
4	5491	29088.211315171193	1
4	5495	29109.941473741994	0
4	5498	29124.400717303619	1
4	5502	29142.895631416112	0
4	5506	29159.927309086249	1
4	5511	29177.090496068095	0
4	5514	29196.103870393952	1
4	5518	29209.87854141138	0
4	5523	29231.490461079883	1
4	5527	29242.236111593062	0
4	5530	29268.393552901703	1
4	5533	29274.938505080315	0
4	5534	29304.462252494458	1
4	5537	29373.699308655261	0
4	5540	29441.583314509366	0
4	5544	29499.436052602526	0
4	5552	29532.251930292356	1
4	5555	29543.193620266805	0
4	5559	29568.206511500003	1
4	5562	29576.334243666773	0
4	5565	29603.834209186485	1
4	5567	29609.149552182205	0
4	5571	29640.205868503823	1
4	5572	29653.625923254571	0
4	5579	29706.906914550646	0
4	5582	29724.944035354751	1
4	5585	29739.795471469059	0
4	5586	29760.597276827987	1
4	5591	29799.448016677246	0
4	5592	29808.422843395239	1
4	5595	29848.006610614799	0
4	5600	29884.485890227677	0
4	5601	29892.297672497597	1
4	5606	30029.242744940546	0
4	5610	30048.35511234712	1
4	5613	30077.711079504899	0
4	5614	30084.630652725947	1
4	5617	30122.924122033529	0
4	5625	30191.365434862715	0
4	5628	30203.683703221191	1
4	5631	30224.083888426779	0
4	5635	30239.752161369196	1
4	5639	30257.185083797771	0
4	5643	30275.436438024254	1
4	5647	30289.800053720425	0
4	5651	30310.800638306093	1
4	5654	30322.33226505763	0
4	5655	30347.481657708583	1
4	5658	30416.497665081988	0
4	5665	30457.5114795642	0
4	5672	30470.243455100399	1
4	5676	30490.285559097066	0
4	5682	30507.121990656118	1
4	5686	30523.336794921265	0
4	5689	30543.2800022866	1
4	5692	30555.652365538341	0
4	5695	30579.754211769904	1
4	5698	30589.05356541139	0
4	5704	30615.797352963023	1
4	5707	30622.383996775692	0
4	5712	30652.092515600143	1
4	5714	30655.737887542368	0
4	5720	30687.780321400187	1
4	5722	30687.805020930081	0
4	5730	30721.706975386303	0
4	5732	30724.147766741319	1
4	5736	30753.945321030606	0
4	5739	30760.569297372391	1
4	5743	30787.711058239656	0
4	5746	30796.330590319498	1
4	5750	30821.290413986711	0
4	5753	30831.705011767267	1
4	5758	30855.404790666163	0
4	5763	30868.63143262148	1
4	5767	30888.070710490598	0
4	5770	30904.914120103922	1
4	5774	30920.542710681878	0
4	5777	30939.749063946354	1
4	5780	30953.682787427259	0
4	5783	30975.435927869321	1
4	5786	30986.811724333136	0
4	5789	31015.598929793522	1
4	5792	31034.349575350534	0
4	5797	31062.421577353023	1
4	5800	31067.865577872153	0
4	5804	31097.73106425864	1
4	5806	31101.19435722327	0
4	5811	31133.671165669613	1
4	5816	31161.097038761271	0
4	5820	31169.309826847297	1
4	5825	31193.590740623383	0
4	5828	31204.913293354853	1
4	5831	31227.153095024259	0
4	5834	31240.787464922638	1
4	5835	31260.414568215314	0
4	5841	31310.657331833523	0
4	5844	31338.725073084903	1
4	5846	31343.875314096869	0
4	5851	31377.38073478331	1
4	5854	31393.909088935583	0
4	5857	31414.342314280841	1
4	5861	31428.337085751831	0
4	5864	31454.079864667763	1
4	5865	31461.799032721944	0
4	5872	31503.193984522789	0
4	5875	31510.236588204066	1
4	5879	31536.382730178018	0
4	5882	31546.634641572435	1
4	5887	31569.995384374412	0
4	5891	31583.876934271258	1
4	5894	31603.184807992051	0
4	5898	31620.001552480019	1
4	5901	31636.240026272888	0
4	5905	31656.145628547278	1
4	5909	31679.794289548451	0
4	5913	31692.02286912478	1
4	5919	31713.291523525507	0
4	5923	31728.148116608537	1
4	5927	31746.901204326532	0
4	5930	31763.967365499093	1
4	5933	31780.447444720205	0
4	5937	31799.6186600433	1
4	5940	31813.516775203758	0
4	5943	31835.396612786808	1
4	5947	31856.158751160334	0
4	5952	31877.861443452625	1
4	5956	31888.453957185478	0
4	5960	31913.654530693937	1
4	5963	31921.750954454259	0
4	5968	31949.462497416485	1
4	5970	31954.566367970057	0
4	5975	31986.451568820246	1
4	5977	31987.863050934513	0
4	5979	32022.127884090443	1
4	5984	32061.049233939762	0
4	5988	32085.758946242251	1
4	5993	32115.278351127465	0
4	5997	32121.40048383013	1
4	6001	32148.713918399488	0
4	6004	32156.51895556893	1
4	6008	32181.826005311919	0
4	6011	32191.990506815145	1
4	6014	32214.772041164535	0
4	6017	32237.290929061028	1
4	6018	32261.988186308972	0
4	6021	32309.137233518112	0
4	6027	32342.444854709241	0
4	6031	32366.923711613694	1
4	6036	32375.989783962567	0
4	6039	32402.863340809628	1
4	6041	32408.153202814785	0
4	6045	32438.767295922417	1
4	6049	32463.126907758536	0
4	6055	32489.581206230969	1
4	6059	32496.57692257826	0
4	6062	32524.442339117602	1
4	6065	32529.520063827687	0
4	6071	32560.751983399002	1
4	6073	32562.300321534417	0
4	6078	32595.001135712371	0
4	6080	32597.097296611658	1
4	6088	32627.918556630962	0
4	6091	32633.844547602572	1
4	6099	32661.425503451008	0
4	6102	32669.178242174598	1
4	6107	32694.229483898694	0
4	6110	32704.533794332636	1
4	6115	32728.091793572402	0
4	6118	32740.780621587457	1
4	6121	32760.339697737423	0
4	6125	32776.952392493222	1
4	6128	32793.444092840331	0
4	6131	32813.522701382423	1
4	6135	32826.463305141475	0
4	6139	32849.415111894651	1
4	6142	32860.191443161136	0
4	6147	32885.114703575477	1
4	6150	32892.638151795094	0
4	6154	32920.374241527737	1
4	6156	32925.496919464267	0
4	6161	32956.070289459019	1
4	6163	32958.748394050145	0
4	6165	32992.517957635331	1
4	6170	33057.675946665107	0
4	6171	33064.708052843955	1
4	6174	33131.275951395355	0
4	6180	33171.281247835898	0
4	6183	33177.847505426608	1
4	6185	33204.072397225109	0
4	6190	33238.045355485525	1
4	6193	33249.563366996248	0
4	6197	33273.831418899455	1
4	6201	33283.186950528504	0
4	6205	33309.441024072386	1
4	6208	33315.771153445974	0
4	6211	33345.878707851055	1
4	6214	33353.534208024107	0
4	6220	33385.229682936783	1
4	6222	33386.956785063929	0
4	6228	33420.416760815834	0
4	6230	33420.551282267187	1
4	6235	33453.345105659635	0
4	6239	33456.437431444039	1
4	6243	33487.101027136045	0
4	6247	33492.666654827164	1
4	6251	33519.503197075827	0
4	6254	33528.738827332897	1
4	6256	33552.329694191649	0
4	6260	33583.688050199444	1
4	6261	33585.535094983051	0
4	6265	33629.580011876525	0
4	6267	33661.024040117871	1
4	6273	33709.30431745254	0
4	6279	33728.441204444683	1
4	6283	33741.739607085636	0
4	6287	33764.215712373947	1
4	6290	33774.273828259679	0
4	6296	33799.635434896305	1
4	6299	33806.915512353644	0
4	6304	33835.720079310497	1
4	6306	33840.582358682384	0
4	6310	33871.443508687223	1
4	6312	33874.418268263636	0
4	6318	33907.533463084089	1
4	6320	33907.946452954221	0
4	6325	33941.83894589672	0
4	6327	33943.573166259974	1
4	6333	33974.277880582683	0
4	6336	33988.513862786912	1
4	6340	34007.376053134512	0
4	6345	34024.360253150322	1
4	6351	34040.852136572228	0
4	6357	34060.598441723637	1
4	6360	34073.047703217294	0
4	6363	34096.947310942161	1
4	6366	34106.295197967615	0
4	6369	34132.718288685959	1
4	6373	34139.102091573074	0
4	6379	34168.307046152413	1
4	6381	34172.693626429654	0
4	6387	34203.721544967363	1
4	6390	34206.444934545182	0
4	6395	34239.098459452321	0
4	6397	34240.007079831263	1
4	6402	34272.379939705147	0
4	6406	34276.270783569248	1
4	6412	34306.194534940438	0
4	6415	34311.184129367749	1
4	6419	34339.330736262958	0
4	6422	34346.980809590248	1
4	6426	34372.12272107135	0
4	6429	34383.80044139921	1
4	6432	34404.976377199286	0
4	6435	34419.0076707561	1
4	6438	34437.79406471412	0
4	6442	34457.05377280795	1
4	6445	34474.474662294479	0
4	6448	34493.728698299119	1
4	6451	34521.417343305918	0
4	6452	34542.648071413291	1
4	6458	34584.972516110209	0
4	6461	34597.241996628931	1
4	6465	34618.449601724652	0
4	6468	34645.837500194966	1
4	6469	34650.991829774005	0
4	6476	34684.393358445994	0
4	6479	34691.954768505983	1
4	6483	34716.488259577929	0
4	6486	34727.162511328337	1
4	6487	34749.708221379207	0
4	6495	34840.457701118163	0
4	6498	34854.226451866168	1
4	6501	34873.810843111955	0
4	6504	34890.102667215132	1
4	6506	34907.355857217359	0
4	6511	34939.583138735649	1
4	6515	34945.978669887333	0
4	6519	34974.874904977221	1
4	6522	34979.767715058561	0
4	6527	35011.060412355254	1
4	6529	35013.510041177097	0
4	6535	35047.117340882467	1
4	6537	35052.119573892085	0
4	6543	35082.709769182733	1
4	6545	35085.9987792894	0
4	6552	35118.701607520349	1
4	6554	35118.898379288648	0
4	6561	35152.19221938554	0
4	6563	35154.289355550477	1
4	6569	35185.66547851527	0
4	6572	35190.105715448696	1
4	6580	35218.672982595037	0
4	6583	35226.622566665486	1
4	6587	35252.524086071166	0
4	6591	35263.140064317725	1
4	6596	35284.167642915694	0
4	6600	35298.539915836652	1
4	6604	35317.146633114287	0
4	6608	35334.352673829994	1
4	6614	35350.012194080936	0
4	6618	35370.13307338545	1
4	6621	35382.813327543724	0
4	6626	35406.107502892922	1
4	6629	35416.319043972715	0
4	6632	35442.710495803729	1
4	6635	35449.604236793366	0
4	6639	35478.73474198369	1
4	6641	35482.416551923489	0
4	6645	35514.978284828116	1
4	6647	35515.126487096254	0
4	6653	35548.301772506584	0
4	6655	35551.03441541994	1
4	6660	35580.407021804059	0
4	6663	35587.008166541165	1
4	6668	35613.279761621265	0
4	6671	35622.163555717205	1
4	6677	35646.427824769129	0
4	6680	35658.002122124352	1
4	6685	35678.537561540064	0
4	6688	35693.872796320711	1
4	6691	35711.328475837097	0
4	6694	35729.309536596865	1
4	6698	35744.565182427346	0
4	6701	35765.597544247987	1
4	6703	35778.822498400468	0
4	6707	35811.930646412221	1
4	6709	35819.083031708426	0
4	6711	35853.964605196315	1
4	6717	35911.430362405696	0
4	6721	35926.761417301337	1
4	6726	35944.661151384102	0
4	6730	35962.644259538568	1
4	6733	35978.107219790994	0
4	6736	35998.985337843346	1
4	6739	36011.46495904992	0
4	6740	36035.743414941583	1
4	6745	36080.937493309373	0
4	6749	36094.389697537752	1
4	6752	36119.208747696874	0
4	6753	36130.646347444301	1
4	6759	36181.684359346697	0
4	6763	36189.105168190825	1
4	6768	36214.637313459662	0
4	6773	36225.193420542248	1
4	6779	36247.816707519972	0
4	6784	36261.03144484193	1
4	6789	36281.285593565667	0
4	6793	36297.542749680706	1
4	6798	36313.037851344334	0
4	6802	36333.723156442125	1
4	6805	36345.550019411835	0
4	6809	36370.229662110115	1
4	6813	36379.226981220745	0
4	6816	36406.167812798726	1
4	6819	36412.711390793725	0
4	6825	36442.498162506007	1
4	6827	36446.369310195007	0
4	6833	36477.48159020358	1
4	6835	36479.831261096075	0
4	6839	36512.421517127158	0
4	6841	36512.773803872604	1
4	6846	36545.11379339105	0
4	6850	36548.973308106032	1
4	6855	36578.236390874989	0
4	6859	36585.466521199933	1
4	6866	36610.839758310112	0
4	6870	36621.117424237861	1
4	6875	36644.360927651593	0
4	6879	36657.171178691611	1
4	6885	36677.119391950031	0
4	6889	36693.044839980207	1
4	6892	36709.944307705113	0
4	6896	36729.368169830538	1
4	6900	36743.46269729236	0
4	6903	36765.444743005157	1
4	6907	36775.812047468155	0
4	6912	36801.65723627038	1
4	6915	36808.009856091726	0
4	6918	36837.610456788211	1
4	6920	36841.183804042263	0
4	6925	36873.630539000129	1
4	6927	36874.637901321909	0
4	6933	36906.766726701897	0
4	6935	36909.517390458826	1
4	6942	36939.383910051298	0
4	6945	36946.33339616016	1
4	6950	36971.482588694632	0
4	6953	36981.702090445171	1
4	6958	37004.042984091719	0
4	6961	37017.32985093528	1
4	6965	37036.796067163366	0
4	6969	37053.03609610351	1
4	6972	37069.635403670182	0
4	6976	37089.741278987804	1
4	6979	37103.077305177711	0
4	6982	37125.088263095568	1
4	6985	37136.909256172422	0
4	6990	37161.008442116064	1
4	6994	37169.971166257064	0
4	6999	37196.975202727142	1
4	7002	37203.434853027243	0
4	7007	37233.284928764047	1
4	7009	37236.417789831257	0
4	7016	37269.055672248671	0
4	7018	37269.90735335978	1
4	7024	37302.39577596212	0
4	7027	37305.569179402566	1
4	7032	37335.340063539301	0
4	7035	37341.39885254035	1
4	7039	37368.654022277385	0
4	7042	37377.50876440405	1
4	7045	37401.882898007509	0
4	7049	37413.470353233993	1
4	7052	37435.848220150222	0
4	7056	37449.843050528284	1
4	7059	37468.198208235494	0
4	7062	37486.022479626692	1
4	7063	37500.679921513959	0
4	7066	37534.188860235309	0
4	7070	37597.760525335417	0
4	7072	37629.537200776409	1
4	7078	37663.839632128782	0
4	7083	37686.892299368649	1
4	7087	37696.955440570041	0
4	7092	37722.999557141605	1
4	7095	37729.478174160827	0
4	7100	37758.817555618976	1
4	7102	37763.142446119521	0
4	7106	37794.906992317565	1
4	7108	37795.880018762113	0
4	7112	37831.89528808434	1
4	7114	37833.365057299514	0
4	7116	37868.365504230865	1
4	7121	37913.456824985766	0
4	7122	37921.570140556168	1
4	7125	37975.545962401745	0
4	7134	38021.10215947527	0
4	7136	38023.842895833491	1
4	7141	38054.342763313531	0
4	7144	38059.408608952894	1
4	7147	38087.128181277978	0
4	7150	38095.652535651302	1
4	7151	38120.351724012661	0
4	7157	38153.447283328061	0
4	7160	38156.861851124698	1
4	7163	38185.761829347673	0
4	7166	38211.036285586423	1
4	7167	38238.726986836259	0
4	7175	38275.488081631373	0
4	7178	38282.601667537234	1
4	7183	38308.700136360853	0
4	7186	38317.844837061135	1
4	7189	38342.087553923694	0
4	7193	38354.185174507641	1
4	7200	38375.247286180933	0
4	7203	38389.963092872674	1
4	7207	38408.070561584861	0
4	7211	38425.491224899533	1
4	7214	38440.576523539182	0
4	7218	38461.075349087307	1
4	7221	38474.116179335275	0
4	7228	38497.469819098778	1
4	7231	38506.227406801081	0
4	7237	38533.665219150015	1
4	7239	38539.039230682453	0
4	7245	38569.498339299777	1
4	7248	38572.591916988853	0
4	7253	38604.900213302787	1
4	7255	38606.078379186872	0
4	7261	38639.246767818627	0
4	7263	38640.254844492039	1
4	7268	38672.994136859104	0
4	7271	38676.615770993062	1
4	7276	38705.346510934134	0
4	7279	38712.736635416859	1
4	7282	38738.002926943751	0
4	7285	38748.924513065663	1
4	7289	38770.660298996179	0
4	7292	38785.008568845287	1
4	7295	38803.89879404453	0
4	7299	38825.403812364854	1
4	7304	38846.067076355384	0
4	7307	38861.92337140219	1
4	7310	38878.517315743699	0
4	7311	38897.202501009916	1
4	7314	38943.312877111649	0
4	7319	38986.163982686482	0
4	7320	39006.161678735273	1
4	7326	39180.420539575706	0
4	7330	39190.812498840356	1
4	7334	39213.609423963361	0
4	7338	39227.054630317191	1
4	7342	39246.815803592518	0
4	7348	39263.259651454133	1
4	7352	39280.45265778738	0
4	7358	39299.666975466351	1
4	7361	39312.864868428722	0
4	7364	39335.660484589809	1
4	7368	39346.292938816277	0
4	7371	39371.625413927043	1
4	7376	39378.823769782344	0
4	7380	39407.985217220169	1
4	7382	39411.340071585368	0
4	7386	39444.092551612036	0
4	7388	39444.324765429237	1
4	7392	39477.651933785303	0
4	7395	39495.556677224247	1
4	7396	39511.264717249765	0
4	7405	39548.242247717091	0
4	7408	39552.110891474532	1
4	7415	39580.569038262039	0
4	7418	39587.993575031395	1
4	7422	39612.944555955904	0
4	7425	39625.476371164413	1
4	7428	39645.875389056285	0
4	7431	39661.791492738937	1
4	7436	39678.208863327689	0
4	7439	39698.637851493645	1
4	7443	39712.349078109045	0
4	7448	39735.000400214231	1
4	7451	39745.196430053541	0
4	7456	39771.088456876211	1
4	7459	39777.102428724418	0
4	7463	39807.797231067548	1
4	7465	39809.215074865125	0
4	7470	39841.545469260826	0
4	7472	39844.391208515365	1
4	7477	39875.589381108394	0
4	7480	39893.624982679102	1
4	7482	39908.449961369834	0
4	7492	39941.582014360286	1
4	7494	39942.183827936217	0
4	7498	39975.188036368485	0
4	7500	39976.835222002921	1
4	7504	40008.640628391953	0
4	7508	40013.975536684922	1
4	7514	40041.197357672787	0
4	7517	40049.924994512472	1
4	7520	40073.062183435916	0
4	7524	40086.330608765759	1
4	7527	40107.33684719914	0
4	7530	40121.950518151601	1
4	7533	40140.900047142662	0
4	7534	40161.531439893346	1
4	7540	40197.195852594358	0
4	7544	40216.016302535337	1
4	7547	40229.633612616192	0
4	7548	40251.328173322543	1
4	7556	40289.316996140503	0
4	7559	40293.826758485985	1
4	7564	40322.169873562907	0
4	7567	40329.849046878489	1
4	7571	40354.896169494846	0
4	7575	40365.754961742943	1
4	7580	40388.437856266673	0
4	7583	40401.839343992453	1
4	7587	40421.40144229495	0
4	7591	40437.549916489641	1
4	7595	40453.790008003986	0
4	7598	40473.771193246571	1
4	7602	40487.579240297516	0
4	7605	40510.047273520799	1
4	7607	40521.126384627066	0
4	7611	40555.855377836044	1
4	7612	40556.180802848727	0
4	7619	40594.441987991779	0
4	7624	40609.507112500733	1
4	7630	40627.004570276843	0
4	7634	40646.44151632589	1
4	7638	40660.023083842102	0
4	7641	40682.498707956784	1
4	7645	40692.956587932826	0
4	7649	40718.391874007987	1
4	7653	40725.345060078987	0
4	7657	40754.432253534538	1
4	7660	40758.941651455218	0
4	7666	40789.570864959972	1
4	7668	40792.912080661882	0
4	7672	40825.10121748215	1
4	7674	40826.404181660701	0
4	7679	40860.346141871631	0
4	7681	40861.211234580826	1
4	7686	40893.163236635597	0
4	7689	40896.991322044195	1
4	7693	40924.974806037433	0
4	7697	40938.014968035378	1
4	7701	40958.511192327417	0
4	7704	40974.123078179321	1
4	7705	40991.642541969247	0
4	7712	41033.216435288921	0
4	7715	41037.896510237009	1
4	7719	41065.980853922084	0
4	7722	41073.83495585873	1
4	7727	41099.757900171377	0
4	7730	41111.755696451214	1
4	7733	41132.36677374306	0
4	7736	41147.666880713253	1
4	7737	41176.819684690368	0
4	7742	41249.848866824643	0
4	7743	41279.715976750514	1
4	7749	41322.539828519438	0
4	7752	41332.642839291402	1
4	7755	41354.716579346585	0
4	7759	41378.64333307501	1
4	7764	41404.393833101475	0
4	7767	41414.143541328946	1
4	7770	41437.965653617759	0
4	7771	41451.206520182743	1
4	7776	41542.496097488661	0
4	7780	41567.312554347366	1
4	7784	41575.393642821065	0
4	7788	41604.446834360018	1
4	7790	41608.112937420133	0
4	7795	41640.477908197881	1
4	7800	41664.874700194362	0
4	7803	41677.007222798449	1
4	7807	41697.477177428464	0
4	7811	41713.33231732876	1
4	7814	41730.170767568252	0
4	7815	41749.051416729328	1
4	7821	41792.134771762409	0
4	7825	41798.419693547551	1
4	7831	41825.50747313438	0
4	7834	41833.770900858539	1
4	7840	41859.11526185422	0
4	7844	41869.819203763392	1
4	7850	41892.670886651863	0
4	7853	41906.4930027193	1
4	7857	41925.717116217892	0
4	7862	41942.104418408573	1
4	7865	41958.798496669214	0
4	7869	41977.692102092203	1
4	7872	41991.674636128045	0
4	7877	42013.165642869778	1
4	7880	42025.014313547116	0
4	7883	42048.389496362416	1
4	7887	42058.557697167125	0
4	7891	42083.833135675796	1
4	7894	42091.927642913975	0
4	7897	42120.29615033484	1
4	7900	42125.411526110346	0
4	7904	42155.465217993974	1
4	7906	42158.24030817187	0
4	7911	42192.557812449731	1
4	7915	42199.793471858432	0
4	7919	42228.428554453767	1
4	7921	42232.772944684479	0
4	7929	42265.213495434521	1
4	7931	42266.942882578304	0
4	7936	42299.872388496134	0
4	7938	42302.043472714229	1
4	7945	42332.948752670066	0
4	7948	42337.802609779053	1
4	7951	42366.287258204841	0
4	7954	42373.039643219354	1
4	7957	42399.024090776276	0
4	7958	42409.412024975637	1
4	7964	42487.044212960486	0
4	7968	42495.660418926696	1
4	7971	42519.734879605713	0
4	7972	42532.11486873229	1
4	7981	42566.721191608465	0
4	7984	42570.720053352613	1
4	7988	42599.698297226596	0
4	7991	42606.434591124673	1
4	7997	42633.41096051618	0
4	8001	42642.811076638216	1
4	8004	42666.310437916986	0
4	8008	42679.633968164311	1
4	8014	42699.338978675996	0
4	8017	42715.73850714154	1
4	8023	42732.104796399662	0
4	8027	42751.86302918362	1
4	8032	42765.003061656788	0
4	8036	42788.091048125781	1
4	8040	42797.461940302914	0
4	8045	42825.510649352998	1
4	8047	42830.413706961986	0
4	8052	42861.592527702016	1
4	8054	42863.31037084104	0
4	8058	42896.356385253711	0
4	8060	42897.440540136789	1
4	8065	42929.160192898418	0
4	8068	42933.528232855828	1
4	8074	42962.649444044914	0
4	8078	42969.616187744164	1
4	8083	42995.708104474014	0
4	8086	43005.02628836365	1
4	8090	43029.559918791133	0
4	8094	43042.195911749825	1
4	8097	43062.641175159734	0
4	8101	43078.389688055224	1
4	8105	43095.768593354776	0
4	8110	43113.933784074838	1
4	8114	43129.239300513364	0
4	8120	43150.053253736728	1
4	8123	43162.870694409839	0
4	8127	43186.098875685376	1
4	8130	43196.502598993783	0

