file 18668707 1517390442                                        
version 2
run General-0-20180131-10:19:53-5844
attr configname General
attr datetime 20180131-10:19:53
attr experiment General
attr inifile carrefour.ini
attr iterationvars ""
attr iterationvarsf ""
attr measurement ""
attr network Carrefour
attr processid 5844
attr repetition 0
attr replication #0
attr resultdir results
attr runnumber 0
attr seedset 0
param **.lambda 101
param **.numeroCasse 2
param **.mu 15
param **.tipoSimulazione 0
param **.delay 0
param **.ServiceType 1

vector 0 Carrefour.coda 1_Lambda:vector ETV
attr source Interarrivals
attr title "1/lambda, vector"
vector 1 Carrefour.coda E_Nq:vector ETV
attr source QueueLenght
attr title "E[Nq], vector"
vector 2 Carrefour.coda E_W:vector ETV
attr source Queuing
attr title "E[W], vector"
vector 3 Carrefour.decisore E_R:vector ETV
attr source TotalTime
attr title "E[R], vector"
vector 4 Carrefour.decisore ActiveTillStat:vector ETV
attr source ActiveTill
attr title "Active Till, vector"
0	996 1490752 1 129788 7 3297165.135056501243 32768 0.000343873518 1046.0455190721 3297165.1350565 660505702.05485
1	1491748 1093804 1 131456 7 3339625.592606693763 32768 0 433 5500872 1305191080
2	2585552 1493649 1 131456 7 3339625.592606693763 32768 0 42706.892159512 552898275.4471 13077451192788
3	4079201 1494256 8 131464 200.641069409898 3339835.047184411559 32768 177.71113957314 42916.343247835 559573943.99642 13304035103411
4	5573457 1039057 8 131464 200.641069409898 3339835.047184411559 32768 0 1 16383 16383
0	6612514 1529850 129789 260380 3297204.318933528211 6620152.920932276783 32768 0.000469119679 943.02125530798 3322987.7858758 668320599.93438
1	8142364 1143215 131462 262667 3339757.411927739766 6678732.11637192114 32768 312 613 15340764 7363184130
2	9285579 1532813 131462 262667 3339757.411927739766 6678732.11637192114 32768 31893.374596597 62432.387265967 1556097688.5671 75691482580415
3	10818392 1532751 131468 262673 3339972.249827493157 6678937.751128882509 32768 32091.703812865 62621.983064076 1562775892.6271 76327068337853
4	12351143 1077679 131468 262673 3339972.249827493157 6678937.751128882509 32768 0 1 16379 16379
0	13428822 1211676 260381 362963 6620162.320534619442 9222975.54396592883 25957 0.000570191516 950.69347223881 2602822.6230337 519354893.24166
1	14640498 871144 262670 362971 6678858.767990717894 9223224.162985159762 24969 554 1002 19134080 15023380116
2	15511642 1168040 262670 362971 6678858.767990717894 9223224.162985159762 24969 56360.739221399 100767.82303735 1919046342.8535 1.5094705206542e+014
3	16679682 1167890 262676 362970 6679066.027160909619 9223224.162985159762 24967 56562.511913327 100972.88343353 1923934270.4227 1.5171012752933e+014
4	17847572 821133 262676 362970 6679066.027160909619 9223224.162985159762 24967 0 1 12487 12487

