version 2
run General-1-20180204-17:50:46-7804
attr configname General
attr datetime 20180204-17:50:46
attr experiment General
attr inifile carrefour.ini
attr iterationvars $0=50
attr iterationvarsf 50-
attr measurement $0=50
attr network Carrefour
attr processid 7804
attr repetition 0
attr replication #0
attr resultdir results
attr runnumber 1
attr seedset 1
param **.lambda 50
param **.numeroCasse 2
param **.mu 30
param **.tipoSimulazione 0
param **.delay 3
param **.ServiceType 1
param **.varianceLogNormal 0.25
param **.meanLogNormal 30

vector 0 Carrefour.coda 1_Lambda:vector ETV
attr source Interarrivals
attr title "1/lambda, vector"
vector 1 Carrefour.coda E_Nq:vector ETV
attr source QueueLenght
attr title "E[Nq], vector"
vector 2 Carrefour.coda E_W:vector ETV
attr source Queuing
attr title "E[W], vector"
vector 3 Carrefour.decisore E_R:vector ETV
attr source TotalTime
attr title "E[R], vector"
vector 4 Carrefour.decisore ActiveTillStat:vector ETV
attr source ActiveTill
attr title "Active Till, vector"
0	1	7	7
0	4	95.707541441742	88.707541441742
0	7	155.315967036998	59.608425595256
0	10	265.78966029571	110.47369325871
0	12	279.370030184694	13.580369888984
0	16	455.353905819047	175.98387563435
0	19	537.548881692159	82.194975873112
0	22	572.875799688822	35.326917996663
0	24	600.854786223111	27.978986534289
0	27	613.733468655717	12.878682432606
0	29	636.714418956241	22.980950300524
0	35	750.385086311514	113.67066735527
0	37	779.342047439836	28.956961128322
0	40	804.284348371593	24.942300931757
0	41	806.871888997973	2.58754062638
0	48	903.668354452175	96.796465454202
0	50	921.563471114899	17.895116662724
0	51	922.602959086308	1.039487971409
0	58	978.233560217982	55.630601131674
0	61	1015.688745226901	37.455185008919
0	64	1075.798202058099	60.109456831198
0	67	1161.968329415752	86.170127357653
0	69	1185.439381950682	23.47105253493
0	70	1188.163300828644	2.723918877962
0	77	1230.59774783523	42.434447006586
0	80	1336.006375242337	105.40862740711
0	82	1352.704280631829	16.697905389492
0	85	1387.021283424523	34.317002792694
0	89	1465.30185828095	78.280574856427
0	92	1525.161433638824	59.859575357874
0	95	1685.985908022655	160.82447438383
0	97	1706.886703762157	20.900795739502
0	101	1806.057677712636	99.170973950479
0	104	1843.517259113162	37.459581400526
0	106	1862.815817401452	19.29855828829
0	110	1912.821746997487	50.005929596035
0	113	1976.851363518856	64.029616521369
0	115	1985.426114399717	8.574750880861
0	119	2034.003299525001	48.577185125284
0	122	2070.921299507796	36.917999982795
0	125	2129.162204674812	58.240905167016
0	127	2159.180308192373	30.018103517561
0	131	2238.369814137499	79.189505945126
0	133	2257.760236405606	19.390422268107
0	134	2261.462605840472	3.702369434866
0	141	2463.146385178882	201.68377933841
0	144	2599.595161921765	136.44877674288
0	147	2639.316116246924	39.720954325159
0	150	2719.725880700901	80.409764453977
0	152	2751.358205648059	31.632324947158
0	156	2905.864555677059	154.506350029
0	158	2920.398656304452	14.534100627393
0	162	3014.783226403673	94.384570099221
0	165	3139.381723472135	124.59849706846
0	168	3199.058365645518	59.676642173383
0	171	3327.039090484039	127.98072483852
0	173	3336.522584424734	9.483493940695
0	177	3379.018904682764	42.49632025803
0	179	3395.023433608664	16.0045289259
0	182	3424.281141854431	29.257708245767
0	185	3456.252663937075	31.971522082644
0	189	3500.080254602499	43.827590665424
0	192	3600.446356724673	100.36610212217
0	195	3694.092394038975	93.646037314302
0	197	3702.191480533449	8.099086494474
0	201	3739.060171376436	36.868690842987
0	204	3831.985407420855	92.925236044419
0	206	3863.224189033232	31.238781612377
0	209	3870.078532280091	6.854343246859
0	213	3914.35841793013	44.279885650039
0	216	4043.950282513208	129.59186458308
0	218	4057.791532496409	13.841249983201
0	222	4129.71620912608	71.924676629671
0	224	4139.629164554565	9.912955428485
0	225	4140.828317005286	1.199152450721
0	231	4186.235407887365	45.407090882079
0	235	4228.472374011109	42.236966123744
0	237	4248.224047423587	19.751673412478
0	240	4280.965952064177	32.74190464059
0	244	4400.940855940659	119.97490387648
0	247	4449.60299101397	48.662135073311
0	249	4457.496474527452	7.893483513482
0	253	4554.438231971088	96.941757443636
0	256	4591.599641087023	37.161409115935
0	259	4746.70997186909	155.11033078207
0	262	4830.406305053593	83.696333184503
0	265	4956.350340521251	125.94403546766
0	268	5030.695110197529	74.344769676278
0	270	5049.647628678197	18.952518480668
0	274	5112.655388968447	63.00776029025
0	277	5301.684085081928	189.02869611348
0	280	5351.52737820039	49.843293118462
0	283	5434.924703193292	83.397324992902
0	286	5502.435513690599	67.510810497307
0	288	5508.921590351074	6.486076660475
0	292	5693.071148010544	184.14955765947
0	295	5764.274918792017	71.203770781473
0	296	5765.156729397739	0.881810605722
0	301	5844.168572946131	79.011843548392
0	304	5893.136541820019	48.967968873888
0	307	5932.05295561031	38.916413790291
0	308	5934.345573114279	2.292617503969
0	313	5982.873442211266	48.527869096987
0	316	6101.710997471625	118.83755526036
0	319	6142.500362368365	40.78936489674
0	322	6244.512569885048	102.01220751668
0	325	6323.966098126086	79.453528241038
0	327	6332.588911420658	8.622813294572
0	331	6396.931737749105	64.342826328447
0	333	6422.999392623652	26.067654874547
0	336	6445.385576125885	22.386183502233
0	340	6491.417475571216	46.031899445331
0	343	6537.237889458462	45.820413887246
0	344	6539.709001657783	2.471112199321
0	349	6646.712577512883	107.0035758551
0	352	6700.519202696679	53.806625183796
0	355	6824.989422929943	124.47022023326
0	357	6854.163122992652	29.173700062709
0	360	6886.064010182949	31.900887190297
0	363	6897.911854734826	11.847844551877
0	365	6908.732897001228	10.821042266402
0	371	7052.304038120107	143.57114111888
0	373	7059.207621077205	6.903582957098
0	374	7061.434451766435	2.22683068923
0	376	7084.751288023465	23.31683625703
0	384	7128.122581122036	43.371293098571
0	388	7174.275835351253	46.153254229217
0	391	7215.158966932756	40.883131581503
0	394	7253.330381364891	38.171414432135
0	397	7312.330959281598	59.000577916707
0	399	7321.530053038641	9.199093757043
0	400	7323.678492805149	2.148439766508
0	402	7334.087598894232	10.409106089083
0	405	7346.905454923946	12.817856029714
0	410	7372.872611357583	25.967156433637
0	419	7490.716245661412	117.84363430383
0	421	7496.318418337309	5.602172675897
0	425	7537.504369746783	41.185951409474
0	428	7574.089533920603	36.58516417382
0	431	7637.323362774775	63.233828854172
0	433	7658.156938035361	20.833575260586
0	437	7723.988943547688	65.832005512327
0	439	7742.200469447036	18.211525899348
0	441	7748.827270693951	6.626801246915
0	445	7760.232170764936	11.404900070985
0	451	7817.484920468944	57.252749704008
0	454	7868.809424308536	51.324503839592
0	456	7876.966048721939	8.156624413403
0	458	7895.738240406406	18.772191684467
0	464	7963.83973991582	68.101499509414
0	466	7979.98660367648	16.14686376066
0	469	8014.171887870944	34.185284194464
0	472	8023.944221564342	9.772333693398
0	476	8099.743344447189	75.799122882847
0	479	8158.604684531287	58.861340084098
0	482	8201.075114809491	42.470430278204
0	485	8301.291031932894	100.2159171234
0	487	8310.926706709682	9.635674776788
0	491	8371.277482513484	60.350775803802
0	493	8383.780543893459	12.503061379975
0	496	8418.041052561877	34.260508668418
0	499	8433.06149566163	15.020443099753
0	502	8465.281630499935	32.220134838305
0	503	8466.011277565251	0.729647065316
0	510	8513.005794539809	46.994516974558
0	512	8543.075987955901	30.070193416092
0	516	8632.521740859138	89.445752903237
0	517	8633.965068361325	1.443327502187
0	520	8648.493642288925	14.5285739276
0	526	8721.049669481657	72.556027192732
0	528	8734.967550472555	13.917880990898
0	532	8831.389469678134	96.421919205579
0	535	8882.747668935269	51.358199257135
0	538	8998.13847653539	115.39080760012
0	541	9047.925137121114	49.786660585724
0	544	9148.646764818889	100.72162769777
0	546	9169.086484117096	20.439719298207
0	549	9189.469926368545	20.383442251449
0	553	9240.753864453937	51.283938085392
0	555	9248.175777813849	7.421913359912
0	556	9249.967849182757	1.792071368908
0	563	9325.606649245671	75.638800062914
0	566	9402.18524572735	76.578596481679
0	569	9478.912505006151	76.727259278801
0	572	9576.50647403914	97.593969032989
0	575	9618.9125688369	42.40609479776
0	578	9657.97820505009	39.06563621319
0	581	9728.86194170394	70.88373665385
0	584	9822.176524812462	93.314583108522
0	587	9856.66365488532	34.487130072858
0	589	9868.284252666056	11.620597780736
0	592	9902.065816349793	33.781563683737
0	595	9923.573220712097	21.507404362304
0	596	9929.37382720302	5.800606490923
0	603	9975.918199498799	46.544372295779
0	605	10000.599952445223	24.681752946424
0	606	10006.455093895736	5.855141450513
0	610	10009.358135875995	2.903041980259
0	617	10116.625492441719	107.26735656572
0	620	10157.4877347075	40.862242265781
0	623	10225.646515665884	68.158780958384
0	625	10229.740384614397	4.093868948513
0	627	10252.379387085487	22.63900247109
0	628	10258.107554176512	5.728167091025
0	634	10270.164718551455	12.057164374943
0	636	10280.057257849901	9.892539298446
0	637	10290.629117585835	10.571859735934
0	641	10300.880362480723	10.251244894888
0	645	10307.774290087904	6.893927607181
0	646	10322.303475022309	14.529184934405
0	649	10324.826285016506	2.522809994197
0	651	10327.383961214524	2.557676198018
0	657	10359.239793764086	31.855832549562
0	661	10374.233686444767	14.993892680681
0	668	10411.388614289526	37.154927844759
0	670	10417.292472405358	5.903858115832
0	674	10440.411089259405	23.118616854047
0	678	10450.728889744967	10.317800485562
0	684	10482.015742048743	31.286852303776
0	691	10515.412964171672	33.397222122929
0	701	10611.695564212551	96.282600040879
0	703	10629.783173508214	18.087609295663
0	704	10632.633525492695	2.850351984481
0	709	10651.676262134825	19.04273664213
0	715	10799.280976452626	147.6047143178
0	718	10835.430877494257	36.149901041631
0	720	10861.057399656664	25.626522162407
0	723	10867.798114426773	6.740714770109
0	727	11008.144477767006	140.34636334023
0	729	11027.24280961001	19.098331843004
0	733	11087.527956777572	60.285147167562
0	735	11102.317786317342	14.78982953977
0	737	11110.49507214644	8.177285829098
0	743	11178.55886265753	68.06379051109
0	745	11207.159224620374	28.600361962844
0	746	11209.634767683491	2.475543063117
0	753	11262.589714890293	52.954947206802
0	756	11350.11150422458	87.521789334287
0	758	11373.906761130837	23.795256906257
0	761	11397.69454926544	23.787788134603
0	765	11767.953715257916	370.25916599248
0	768	11870.743840780319	102.7901255224
0	771	11913.858250398432	43.114409618113
0	773	11932.348069911958	18.489819513526
0	777	11977.375015073493	45.026945161535
0	780	12092.405210303877	115.03019523038
0	782	12108.00796954074	15.602759236863
0	784	12124.195612518711	16.187642977971
0	790	12198.105808613951	73.91019609524
0	793	12315.746393140891	117.64058452694
0	795	12347.030202010914	31.283808870023
0	797	12350.181773195087	3.151571184173
0	800	12371.249202577375	21.067429382288
0	801	12373.326944160101	2.077741582726
0	802	12379.507114068924	6.180169908823
0	814	12471.661455608887	92.154341539963
0	817	12639.923298585158	168.26184297627
0	820	12736.787087324381	96.863788739223
0	823	12976.622560399864	239.83547307548
0	826	13100.258192363044	123.63563196318
0	828	13104.745111172748	4.486918809704
0	832	13153.28357293246	48.538461759712
0	834	13168.497772855443	15.214199922983
0	838	13286.413315547798	117.91554269236
0	841	13403.820307697088	117.40699214929
0	844	13525.458348319457	121.63804062237
0	847	13710.925375766389	185.46702744693
0	849	13720.479818359376	9.554442592987
0	851	13731.700150560924	11.220332201548
0	857	13784.563792397899	52.863641836975
0	860	13818.766739378915	34.202946981016
0	862	13834.160058640311	15.393319261396
0	865	13856.743899187177	22.583840546866
0	869	13935.611196020387	78.86729683321
0	870	13937.312492357048	1.701296336661
0	873	13956.140003158538	18.82751080149
0	879	14015.259177804061	59.119174645523
0	882	14165.222972933176	149.96379512911
0	884	14175.557198515671	10.334225582495
0	885	14176.288820933344	0.731622417673
0	889	14200.199896462515	23.911075529171
0	896	14297.651083191579	97.451186729064
0	899	14406.310482615679	108.6593994241
0	902	14577.961260003559	171.65077738788
0	905	14634.793376708068	56.832116704509
0	908	14806.646209800341	171.85283309227
0	910	14832.051774167572	25.405564367231
0	913	14856.521843269188	24.470069101616
0	916	14870.312577076945	13.790733807757
0	920	14922.920853091379	52.608276014434
0	921	14924.91313234553	1.992279254151
0	924	14952.218287909285	27.305155563755
0	930	14998.451284376773	46.232996467488
0	932	15023.783009298629	25.331724921856
0	936	15088.603920691977	64.820911393348
0	939	15195.114677349392	106.51075665742
0	941	15202.828571735504	7.713894386112
0	943	15221.109965807481	18.281394071977
0	948	15239.917757546642	18.807791739161
0	952	15280.064286697598	40.146529150956
0	955	15453.04370826293	172.97942156533
0	956	15455.595586605032	2.551878342102
0	961	15500.340837141318	44.745250536286
0	964	15673.599757372557	173.25892023124
0	967	15712.660775885503	39.061018512946
0	970	15761.509259730408	48.848483844905
0	973	15817.618219741572	56.108960011164
0	976	15933.555358465799	115.93713872423
0	979	16076.196676752007	142.64131828621
0	981	16084.480425472297	8.28374872029
0	983	16106.31342645122	21.833000978923
0	988	16124.57929319862	18.2658667474
0	992	16174.228222087304	49.648928888684
0	995	16247.313470651357	73.085248564053
0	998	16380.096507631124	132.78303697977
0	1000	16413.050520842343	32.954013211219
0	1003	16443.356612180685	30.306091338342
0	1007	16499.185240810307	55.828628629622
0	1010	16553.367934339279	54.182693528972
0	1013	16607.7376074967	54.369673157421
0	1016	16679.964453303824	72.226845807124
0	1019	16769.175019563028	89.210566259204
0	1022	16819.28973534959	50.114715786562
0	1023	16820.510613973239	1.220878623649
0	1027	16855.378754963364	34.868140990125
0	1031	16951.24743085883	95.868675895466
0	1034	16989.334232303093	38.086801444263
0	1037	17058.355293084448	69.021060781355
0	1039	17077.601755655728	19.24646257128
0	1043	17126.856940997715	49.255185341987
0	1045	17152.333878958041	25.476937960326
0	1049	17242.241725823893	89.907846865852
0	1051	17268.387616522613	26.14589069872
0	1055	17353.077128902846	84.689512380233
0	1056	17355.144992362646	2.0678634598
0	1061	17518.751154375057	163.60616201241
0	1063	17522.730341001775	3.979186626718
0	1067	17570.633805919457	47.903464917682
0	1070	17617.337093387836	46.703287468379
0	1073	17739.561102397594	122.22400900976
0	1076	17840.198701900168	100.63759950257
0	1078	17845.33368342734	5.134981527172
0	1082	17903.79083319292	58.45714976558
0	1084	17908.714121137484	4.923287944564
0	1088	17987.933994926881	79.219873789397
0	1090	17991.740463675656	3.806468748775
0	1094	18033.850657681619	42.110194005963
0	1097	18100.178714375638	66.328056694019
0	1100	18156.555882218835	56.377167843197
0	1103	18330.147264288042	173.59138206921
0	1106	18372.493119774346	42.345855486304
0	1109	18413.012369428745	40.519249654399
0	1111	18436.255653572243	23.243284143498
0	1113	18442.466929379704	6.211275807461
0	1119	18547.259724687509	104.7927953078
0	1121	18553.277044225807	6.017319538298
0	1123	18575.559403758448	22.282359532641
0	1129	18653.186710493786	77.627306735338
0	1131	18666.867370023726	13.68065952994
0	1135	18747.446086782302	80.578716758576
0	1136	18749.784297883325	2.338211101023
0	1139	18764.98556650408	15.201268620755
0	1140	18780.172388163245	15.186821659165
0	1147	18799.279922028542	19.107533865297
0	1151	18818.083327828341	18.803405799799
0	1157	18987.386972860852	169.30364503251
0	1160	19025.901282400528	38.514309539676
0	1163	19102.676182628499	76.774900227971
0	1166	19285.67138220408	182.99519957558
0	1168	19302.27912528058	16.6077430765
0	1170	19316.27716633874	13.99804105816
0	1176	19440.006462089778	123.72929575104
0	1179	19529.896030100962	89.889568011184
0	1181	19552.218475231748	22.322445130786
0	1185	19629.349527241103	77.131052009355
0	1187	19633.932494594235	4.582967353132
0	1191	19757.083381046996	123.15088645276
0	1193	19783.87340183161	26.790020784614
0	1197	19821.150625028201	37.277223196591
0	1200	19864.772684768211	43.62205974001
0	1203	19918.289122039264	53.516437271053
0	1206	19974.172436345595	55.883314306331
0	1208	19981.409984337852	7.237547992257
0	1211	20015.879861692169	34.469877354317
0	1214	20021.57186272488	5.692001032711
0	1216	20047.388410453366	25.816547728486
0	1220	20055.070498996039	7.682088542673
0	1223	20059.289713472903	4.219214476864
0	1225	20073.671060006549	14.381346533646
0	1226	20075.501561425287	1.830501418738
0	1232	20095.653895024094	20.152333598807
0	1240	20141.610959965095	45.957064941001
0	1246	20229.819883037827	88.208923072732
0	1248	20261.394405705246	31.574522667419
0	1251	20282.189826043847	20.795420338601
0	1254	20305.034019022094	22.844192978247
0	1257	20322.850653022307	17.816634000213
0	1261	20380.737363123379	57.886710101072
0	1263	20392.224246561671	11.486883438292
0	1267	20509.669976565988	117.44573000432
0	1269	20535.337781111715	25.667804545727
0	1273	20623.634287617862	88.296506506147
0	1276	20704.170549309137	80.536261691275
0	1279	20768.319067433653	64.148518124516
0	1282	20916.230764018326	147.91169658467
0	1284	20930.528515763755	14.297751745429
0	1288	20976.492369632566	45.963853868811
0	1289	20979.073768327632	2.581398695066
0	1291	20983.39042425674	4.316655929108
0	1298	21057.269462085876	73.879037829136
0	1300	21070.539018228037	13.269556142161
0	1303	21097.32112810088	26.782109872843
0	1307	21188.360430658471	91.039302557591
0	1309	21205.768531731619	17.408101073148
0	1312	21224.647376907573	18.878845175954
0	1316	21281.090692150877	56.443315243304
0	1317	21282.681597306959	1.590905156082
0	1319	21287.195447278318	4.513849971359
0	1326	21397.433585207645	110.23813792933
0	1328	21427.093188085252	29.659602877607
0	1331	21440.058070296381	12.964882211129
0	1334	21465.599715004486	25.541644708105
0	1337	21486.922001492695	21.322286488209
0	1341	21527.48763966077	40.565638168075
0	1344	21571.242940671687	43.755301010917
0	1347	21626.343634770734	55.100694099047
0	1349	21634.13658332027	7.792948549536
0	1353	21737.980450487671	103.8438671674
0	1356	21785.850069565387	47.869619077716
0	1358	21812.936570516414	27.086500951027
0	1361	21842.65652450041	29.719953983996
0	1363	21847.672020057339	5.015495556929
0	1364	21848.334274522301	0.662254464962
0	1373	21953.397081336326	105.06280681402
0	1375	21976.813231780816	23.41615044449
0	1377	21984.596213913162	7.782982132346
0	1381	21992.058806568952	7.46259265579
0	1384	22015.042796750822	22.98399018187
0	1391	22087.17280854534	72.130011794518
0	1394	22141.320346927683	54.147538382343
0	1397	22176.644458712338	35.324111784655
0	1398	22178.713898188149	2.069439475811
0	1399	22178.768970975146	0.055072786997
0	1402	22194.426203954224	15.657232979078
0	1409	22228.932261133316	34.506057179092
0	1410	22234.443564932566	5.51130379925
0	1416	22251.004639537197	16.561074604631
0	1418	22274.445453096467	23.44081355927
0	1425	22295.303645551987	20.85819245552
0	1426	22305.958410472315	10.654764920328
0	1430	22310.895570299872	4.937159827557
0	1434	22330.698426524943	19.802856225071
0	1435	22334.921061196812	4.222634671869
0	1439	22356.349985308394	21.428924111582
0	1446	22382.136248284354	25.78626297596
0	1453	22418.717318128407	36.581069844053
0	1459	22516.967703397905	98.250385269498
0	1462	22684.16879421514	167.20109081723
0	1465	22867.267151394745	183.0983571796
0	1468	22926.677392370003	59.410240975258
0	1470	22941.563371106249	14.885978736246
0	1474	23018.880402881789	77.31703177554
0	1476	23024.175115051704	5.294712169915
0	1480	23179.424628421372	155.24951336967
0	1482	23192.256928621765	12.832300200393
0	1486	23281.547662588391	89.290733966626
0	1489	23386.793372989682	105.24571040129
0	1492	23455.154334686092	68.36096169641
0	1495	23529.626649600785	74.472314914693
0	1497	23545.515098738187	15.888449137402
0	1501	23600.690886654706	55.175787916519
0	1504	23649.271993471504	48.581106816798
0	1505	23651.315245825728	2.043252354224
0	1510	23690.627935138675	39.312689312947
0	1512	23713.107274067049	22.479338928374
0	1516	23786.403554156001	73.296280088952
0	1518	23793.568689999231	7.16513584323
0	1520	23802.897448665982	9.328758666751
0	1525	23838.421751820667	35.524303154685
0	1527	23849.050306135271	10.628554314604
0	1533	23903.639312552051	54.58900641678
0	1534	23904.497482175556	0.858169623505
0	1539	24099.661756276555	195.164274101
0	1541	24104.100471315998	4.438715039443
0	1544	24135.263887270042	31.163415954044
0	1547	24161.327652658638	26.063765388596
0	1550	24175.621449721034	14.293797062396
0	1554	24207.965945296278	32.344495575244
0	1557	24337.732481872269	129.76653657599
0	1559	24344.670105468028	6.937623595759
0	1560	24348.403920928406	3.733815460378
0	1567	24430.313089707476	81.90916877907
0	1569	24433.705625300239	3.392535592763
0	1571	24455.136660333008	21.431035032769
0	1576	24490.480352509417	35.343692176409
0	1580	24528.666079930926	38.185727421509
0	1582	24541.316631086645	12.650551155719
0	1585	24565.214105795029	23.897474708384
0	1588	24586.676622319249	21.46251652422
0	1592	24632.439548622667	45.762926303418
0	1594	24642.389870522731	9.950321900064
0	1596	24664.591890563878	22.202020041147
0	1602	24708.948844315841	44.356953751963
0	1605	24939.858621215495	230.90977689965
0	1608	25002.368633916807	62.510012701312
0	1610	25022.826955140114	20.458321223307
0	1614	25135.877305063465	113.05034992335
0	1617	25176.730601705742	40.853296642277
0	1619	25188.335817152619	11.605215446877
0	1623	25327.883932984321	139.5481158317
0	1625	25356.558573144096	28.674640159775
0	1626	25359.699668797779	3.141095653683
0	1633	25397.178336309441	37.478667511662
0	1636	25491.506004984639	94.327668675198
0	1637	25493.757202893053	2.251197908414
0	1639	25497.364883842082	3.607680949029
0	1646	25602.056378386681	104.6914945446
0	1647	25603.524597167039	1.468218780358
0	1650	25617.552413952035	14.027816784996
0	1655	25661.724731812047	44.172317860012
0	1659	25780.234506593483	118.50977478144
0	1662	25881.680157424852	101.44565083137
0	1664	25889.54450026922	7.864342844368
0	1668	25938.106230311937	48.561730042717
0	1670	25947.208408241131	9.102177929194
0	1671	25949.033438915392	1.825030674261
0	1677	25990.983731891088	41.950292975696
0	1678	25996.126579687264	5.142847796176
0	1683	26024.315271426077	28.188691738813
0	1688	26044.046529659969	19.731258233892
0	1690	26059.808497039904	15.761967379935
0	1695	26090.555121671368	30.746624631464
0	1699	26216.76909054339	126.21396887202
0	1702	26280.26760665361	63.49851611022
0	1704	26306.003028046928	25.735421393318
0	1707	26325.106264473296	19.103236426368
0	1709	26336.726770942455	11.620506469159
0	1710	26342.206453739749	5.479682797294
0	1719	26448.139209637121	105.93275589737
0	1722	26507.535773769383	59.396564132262
0	1724	26514.748743405236	7.212969635853
0	1728	26616.014066967946	101.26532356271
0	1730	26629.41987279682	13.405805828874
0	1732	26636.350709191852	6.930836395032
0	1738	26687.381073312372	51.03036412052
0	1740	26714.299750689316	26.918677376944
0	1744	26769.178077010341	54.878326321025
0	1747	26817.993101940955	48.815024930614
0	1750	26852.431720405049	34.438618464094
0	1752	26884.982151254956	32.550430849907
0	1755	26899.692689311014	14.710538056058
0	1757	26911.370333656844	11.67764434583
0	1763	27035.179409414514	123.80907575767
0	1766	27089.225392602956	54.045983188442
0	1769	27143.789421086587	54.564028483631
0	1772	27210.064405295653	66.274984209066
0	1774	27217.069799896921	7.005394601268
0	1775	27222.802487760593	5.732687863672
0	1782	27282.828535277794	60.026047517201
0	1784	27304.913832528888	22.085297251094
0	1787	27322.428607221811	17.514774692923
0	1790	27342.873804071237	20.445196849426
0	1793	27367.874216035415	25.000411964178
0	1795	27378.242625425797	10.368409390382
0	1801	27422.0383943976	43.795768971803
0	1803	27452.022516294308	29.984121896708
0	1806	27480.543861242689	28.521344948381
0	1810	27546.753729775456	66.209868532767
0	1812	27553.559260100409	6.805530324953
0	1816	27726.975977989762	173.41671788935
0	1818	27754.570059659115	27.594081669353
0	1820	27760.114030890652	5.543971231537
0	1825	27854.481833245582	94.36780235493
0	1828	27889.188271325129	34.706438079547
0	1831	27941.785206041924	52.596934716795
0	1834	28020.047706102138	78.262500060214
0	1835	28021.061927100933	1.014220998795
0	1840	28150.277811550674	129.21588444974
0	1843	28206.286340389055	56.008528838381
0	1846	28252.834255500105	46.54791511105
0	1848	28256.087455257225	3.25319975712
0	1850	28266.46817344762	10.380718190395
0	1856	28449.35352905572	182.8853556081
0	1858	28465.684532032057	16.331002976337
0	1861	28485.482007742689	19.797475710632
0	1863	28493.800329390756	8.318321648067
0	1867	28512.222598060072	18.422268669316
0	1870	28519.43251107466	7.209913014588
0	1876	28565.113668899579	45.681157824919
0	1880	28604.301864361442	39.188195461863
0	1882	28632.818822191152	28.51695782971
0	1886	28740.517596693735	107.69877450258
0	1888	28764.427963896925	23.91036720319
0	1892	28936.23104355385	171.80307965693
0	1895	29015.342400696147	79.111357142297
0	1898	29071.593109510357	56.25070881421
0	1900	29079.037521575177	7.44441206482
0	1904	29198.526565442222	119.48904386704
0	1907	29311.995172192343	113.46860675012
0	1910	29359.981729319609	47.986557127266
0	1912	29377.878289744191	17.896560424582
0	1916	29501.383633176177	123.50534343199
0	1919	29564.990816923197	63.60718374702
0	1921	29570.60025204169	5.609435118493
0	1923	29584.3452177179	13.74496567621
0	1929	29771.953429355614	187.60821163771
0	1932	29854.492820708815	82.539391353201
0	1934	29881.039742468458	26.546921759643
0	1938	30195.400454395618	314.36071192716
0	1941	30295.70901548037	100.30856108475
0	1944	30331.61859187657	35.9095763962
0	1947	30383.012520863999	51.393928987429
0	1949	30411.139392938403	28.126872074404
0	1953	30457.740594575973	46.60120163757
0	1955	30474.517480145095	16.776885569122
0	1959	30565.789950536061	91.272470390966
0	1961	30574.237022476121	8.44707194006
0	1965	30660.928751258912	86.691728782791
0	1967	30678.741147658707	17.812396399795
0	1971	30737.797560059183	59.056412400476
0	1974	30948.980168356479	211.1826082973
0	1976	30974.855631987227	25.875463630748
0	1980	31042.143927224065	67.288295236838
0	1981	31044.719381440358	2.575454216293
0	1986	31113.048246531096	68.328865090738
0	1988	31123.420997130961	10.372750599865
0	1989	31124.831357117909	1.410359986948
0	1995	31172.757876368274	47.926519250365
0	1996	31174.265878952586	1.508002584312
0	2003	31225.150175673515	50.884296720929
0	2005	31242.419105021329	17.268929347814
0	2007	31249.712233672951	7.293128651622
0	2011	31273.351117882114	23.638884209163
0	2016	31291.259389862416	17.908271980302
0	2020	31346.086735232946	54.82734537053
0	2022	31350.187282116781	4.100546883835
0	2024	31363.110335605796	12.923053489015
0	2025	31377.787646458344	14.677310852548
0	2028	31380.349532852531	2.561886394187
0	2037	31423.637762887745	43.288230035214
0	2041	31473.772316672184	50.134553784439
0	2044	31542.158283062454	68.38596639027
0	2047	31686.636239896797	144.47795683434
0	2050	31858.411018989902	171.7747790931
0	2052	31878.404404768322	19.99338577842
0	2055	31891.708805613069	13.304400844747
0	2059	32029.276559148855	137.56775353579
0	2061	32040.272137430802	10.995578281947
0	2064	32071.248919927998	30.976782497196
0	2067	32082.573746261564	11.324826333566
0	2070	32105.409883814025	22.836137552461
0	2074	32151.122270536287	45.712386722262
0	2077	32191.444913488124	40.322642951837
0	2080	32310.766318468073	119.32140497995
0	2083	32347.812356493934	37.046038025861
0	2085	32356.592959645351	8.780603151417
0	2089	32437.927600466711	81.33464082136
0	2092	32560.107653494641	122.18005302793
0	2094	32572.924030107762	12.816376613121
0	2096	32581.390150830036	8.466120722274
0	2102	32679.882281980644	98.492131150608
0	2104	32703.66182993811	23.779547957466
0	2108	32743.365746516339	39.703916578229
0	2110	32761.020823920656	17.655077404317
0	2111	32761.623102399629	0.602278478973
0	2118	32928.754030235357	167.13092783573
0	2120	32935.618609663132	6.864579427775
0	2124	33124.322924459496	188.70431479636
0	2127	33218.046152210129	93.723227750633
0	2130	33251.169404588201	33.123252378072
0	2132	33278.540797347228	27.371392759027
0	2136	33390.115665986483	111.57486863926
0	2139	33503.663948145945	113.54828215946
0	2142	33540.268082738544	36.604134592599
0	2144	33546.803279495506	6.535196756962
0	2148	33637.933182006296	91.12990251079
0	2150	33646.937332391797	9.004150385501
0	2151	33651.977289349762	5.039956957965
0	2153	33655.987710578112	4.01042122835
0	2156	33672.2552954297	16.267584851588
0	2164	33715.558392974344	43.303097544644
0	2170	33757.922246473894	42.36385349955
0	2173	33828.764600951614	70.84235447772
0	2176	33940.077536352672	111.31293540106
0	2179	34051.457543435616	111.38000708294
0	2181	34065.559289668932	14.101746233316
0	2182	34069.417968518625	3.858678849693
0	2189	34183.945155167782	114.52718664916
0	2192	34244.711561028118	60.766405860336
0	2194	34276.088802794924	31.377241766806
0	2197	34286.360562422085	10.271759627161
0	2201	34479.488366362455	193.12780394037
0	2204	34583.957527807938	104.46916144548
0	2206	34600.791072533546	16.833544725608
0	2210	34637.411468386482	36.620395852936
0	2213	34727.629656943023	90.218188556541
0	2215	34752.299592929071	24.669935986048
0	2218	34760.087658090261	7.78806516119
0	2221	34792.393772248088	32.306114157827
0	2224	34805.633770112673	13.239997864585
0	2228	34908.046397148829	102.41262703616
0	2231	35056.395961809557	148.34956466073
0	2234	35121.747156560953	65.351194751396
0	2236	35126.798751890923	5.05159532997
0	2238	35140.771122513397	13.972370622474
0	2239	35153.04727201909	12.276149505693
0	2248	35267.624407611967	114.57713559288
0	2250	35271.654390601166	4.029982989199
0	2252	35283.015614075785	11.361223474619
0	2258	35435.488186790088	152.4725727143
0	2261	35519.296349225137	83.808162435049
0	2263	35531.098744161896	11.802394936759
0	2266	35565.020814050201	33.922069888305
0	2270	35668.638191986892	103.61737793669
0	2273	35712.440356654007	43.802164667115
0	2276	35796.05739677398	83.617040119973
0	2278	35799.331368439432	3.273971665452
0	2280	35819.007811046813	19.676442607381
0	2281	35820.166319795479	1.158508748666
0	2290	35894.446388485496	74.280068690017
0	2293	36052.092409671769	157.64602118627
0	2296	36133.757452445101	81.665042773332
0	2298	36147.476254053829	13.718801608728
0	2302	36225.93166613262	78.455412078791
0	2305	36297.756692451905	71.825026319285
0	2308	36358.354954380671	60.598261928766
0	2311	36397.22713643924	38.872182058569
0	2314	36449.6431352717	52.41599883246
0	2317	36503.28512464123	53.64198936953
0	2320	36582.345067811262	79.059943170032
0	2323	36658.770144884964	76.425077073702
0	2324	36660.986871336605	2.216726451641
0	2329	36709.042907170727	48.056035834122
0	2332	36746.116164725594	37.073257554867
0	2335	36804.797095260505	58.680930534911
0	2337	36818.081027606603	13.283932346098
0	2340	36843.965755932145	25.884728325542
0	2344	36942.277522026156	98.311766094011
0	2347	37018.662375839042	76.384853812886
0	2350	37076.794270819148	58.131894980106
0	2353	37209.220284984472	132.42601416532
0	2356	37294.807133686357	85.586848701885
0	2359	37395.356142866392	100.54900918004
0	2361	37411.946977496217	16.590834629825
0	2362	37415.408859322767	3.46188182655
0	2366	37429.217735345032	13.808876022265
0	2372	37466.61392401004	37.396188665008
0	2376	37545.310855617564	78.696931607524
0	2379	37596.689809685779	51.378954068215
0	2382	37697.391239058859	100.70142937308
0	2384	37728.931046896926	31.539807838067
0	2387	37762.197487770818	33.266440873892
0	2391	37873.171599216376	110.97411144556
0	2393	37889.339822830685	16.168223614309
0	2397	38044.931185015684	155.591362185
0	2400	38117.988797177355	73.057612161671
0	2403	38335.896917472747	217.90812029539
0	2405	38342.997716720262	7.100799247515
0	2407	38352.804119209882	9.80640248962
0	2412	38398.619986052602	45.81586684272
0	2416	38508.831078806436	110.21109275383
0	2419	38583.290589377356	74.45951057092
0	2422	38633.165054205877	49.874464828521
0	2425	38787.935073117063	154.77001891119
0	2428	38827.618004204442	39.682931087379
0	2430	38852.496775160055	24.878770955613
0	2434	38951.95674857862	99.459973418565
0	2437	39010.254773971389	58.298025392769
0	2439	39021.802399771442	11.547625800053
0	2441	39040.749997122985	18.947597351543
0	2446	39067.209209826366	26.459212703381
0	2448	39074.25056205823	7.041352231864
0	2452	39086.756985657203	12.506423598973
0	2458	39284.489168549092	197.73218289189
0	2461	39322.564311922497	38.075143373405
0	2463	39355.645658843786	33.081346921289
0	2467	39411.440572358553	55.794913514767
0	2469	39442.818160733502	31.377588374949
0	2472	39450.617814757274	7.799654023772
0	2476	39505.707172906684	55.08935814941
0	2479	39622.207942243255	116.50076933657
0	2481	39629.209501865211	7.001559621956
0	2485	39801.345706897448	172.13620503224
0	2487	39830.372014742952	29.026307845504
0	2490	39850.792246772953	20.420232030001
0	2494	39932.450011998515	81.657765225562
0	2496	39945.261542834081	12.811530835566
0	2500	40023.792566222858	78.531023388777
0	2503	40214.140062862901	190.34749664004
0	2505	40242.908034173584	28.767971310683
0	2509	40282.749076510882	39.841042337298
0	2510	40285.503559376098	2.754482865216
0	2515	40358.773560769199	73.270001393101
0	2518	40400.980389654736	42.206828885537
0	2520	40423.086289193794	22.105899539058
0	2523	40434.994142070447	11.907852876653
0	2525	40451.360009943422	16.365867872975
0	2530	40477.279561986446	25.919552043024
0	2533	40495.683603707403	18.404041720957
0	2536	40515.581407837354	19.897804129951
0	2538	40524.593014062713	9.011606225359
0	2539	40532.190512278883	7.59749821617
0	2543	40542.353683006072	10.163170727189
0	2550	40575.683869417085	33.330186411013
0	2554	40590.52888390032	14.845014483235
0	2559	40632.721174343913	42.192290443593
0	2561	40639.622188544685	6.901014200772
0	2567	40762.30178919016	122.67960064547
0	2569	40784.533907091362	22.232117901202
0	2573	40953.388451250024	168.85454415866
0	2576	41046.779189673452	93.390738423428
0	2579	41096.574640337976	49.795450664524
0	2582	41190.318207810582	93.743567472606
0	2584	41205.072379088283	14.754171277701
0	2588	41322.149149379201	117.07677029092
0	2591	41372.811347803452	50.662198424251
0	2593	41394.00824855287	21.196900749418
0	2594	41395.79585881757	1.7876102647
0	2596	41403.189896905957	7.394038088387
0	2600	41409.492461269182	6.302564363225
0	2603	41431.753743646635	22.261282377453
0	2610	41469.623939235071	37.870195588436
0	2615	41482.586423291137	12.962484056066
0	2616	41496.051806257592	13.465382966455
0	2623	41528.010342988457	31.958536730865
0	2629	41665.302298458595	137.29195547014
0	2632	41749.144393622139	83.842095163544
0	2635	41865.18045084263	116.03605722049
0	2637	41883.35450970657	18.17405886394
0	2641	41933.44577937143	50.09126966486
0	2643	41937.304230717777	3.858451346347
0	2647	41975.314007788746	38.009777070969
0	2650	42165.878097931687	190.56409014294
0	2652	42177.760449916024	11.882351984337
0	2655	42211.259400038059	33.498950122035
0	2659	42259.837115542599	48.57771550454
0	2662	42357.774965030188	97.937849487589
0	2664	42380.167143810079	22.392178779891
0	2668	42439.682048405432	59.514904595353
0	2670	42443.023054057108	3.341005651676
0	2672	42465.524466138844	22.501412081736
0	2678	42599.893666225589	134.36920008674
0	2680	42604.287445607805	4.393779382216
0	2682	42623.140030465025	18.85258485722
0	2685	42634.094564957965	10.95453449294
0	2692	42734.740166906856	100.64560194889
0	2695	42785.894404012294	51.154237105438
0	2696	42787.704101233184	1.80969722089
0	2701	42891.398644267793	103.69454303461
0	2704	42928.121078564589	36.722434296796
0	2707	42970.867085579167	42.746007014578
0	2709	42989.02934757256	18.162261993393
0	2713	43195.822077591239	206.79273001868
1	1	7	0
1	4	95.707541441742	0
1	7	155.315967036998	0
1	10	265.78966029571	0
1	12	279.370030184694	0
1	16	455.353905819047	0
1	19	537.548881692159	0
1	22	572.875799688822	0
1	24	600.854786223111	0
1	27	613.733468655717	0
1	31	637.624133504973	0
1	35	750.385086311514	0
1	37	779.342047439836	0
1	40	804.284348371593	0
1	44	815.685206199427	0
1	48	903.668354452175	0
1	50	921.563471114899	0
1	54	936.424707416422	0
1	58	978.233560217982	0
1	61	1015.688745226901	0
1	64	1075.798202058099	0
1	67	1161.968329415752	0
1	69	1185.439381950682	0
1	73	1195.693519969174	0
1	77	1230.59774783523	0
1	80	1336.006375242337	0
1	82	1352.704280631829	0
1	85	1387.021283424523	0
1	89	1465.30185828095	0
1	92	1525.161433638824	0
1	95	1685.985908022655	0
1	97	1706.886703762157	0
1	101	1806.057677712636	0
1	104	1843.517259113162	0
1	106	1862.815817401452	0
1	110	1912.821746997487	0
1	113	1976.851363518856	0
1	115	1985.426114399717	0
1	119	2034.003299525001	0
1	122	2070.921299507796	0
1	125	2129.162204674812	0
1	127	2159.180308192373	0
1	131	2238.369814137499	0
1	133	2257.760236405606	0
1	137	2270.736131058132	0
1	141	2463.146385178882	0
1	144	2599.595161921765	0
1	147	2639.316116246924	0
1	150	2719.725880700901	0
1	152	2751.358205648059	0
1	156	2905.864555677059	0
1	158	2920.398656304452	0
1	162	3014.783226403673	0
1	165	3139.381723472135	0
1	168	3199.058365645518	0
1	171	3327.039090484039	0
1	173	3336.522584424734	0
1	177	3379.018904682764	0
1	179	3395.023433608664	0
1	182	3424.281141854431	0
1	185	3456.252663937075	0
1	189	3500.080254602499	0
1	192	3600.446356724673	0
1	195	3694.092394038975	0
1	197	3702.191480533449	0
1	201	3739.060171376436	0
1	204	3831.985407420855	0
1	206	3863.224189033232	0
1	209	3870.078532280091	0
1	213	3914.35841793013	0
1	216	4043.950282513208	0
1	218	4057.791532496409	0
1	222	4129.71620912608	0
1	224	4139.629164554565	0
1	228	4163.207790416047	0
1	231	4186.235407887365	0
1	235	4228.472374011109	0
1	237	4248.224047423587	0
1	240	4280.965952064177	0
1	244	4400.940855940659	0
1	247	4449.60299101397	0
1	249	4457.496474527452	0
1	253	4554.438231971088	0
1	256	4591.599641087023	0
1	259	4746.70997186909	0
1	262	4830.406305053593	0
1	265	4956.350340521251	0
1	268	5030.695110197529	0
1	270	5049.647628678197	0
1	274	5112.655388968447	0
1	277	5301.684085081928	0
1	280	5351.52737820039	0
1	283	5434.924703193292	0
1	286	5502.435513690599	0
1	288	5508.921590351074	0
1	292	5693.071148010544	0
1	295	5764.274918792017	0
1	296	5765.156729397739	0
1	301	5844.168572946131	0
1	304	5893.136541820019	0
1	307	5932.05295561031	0
1	308	5934.345573114279	0
1	313	5982.873442211266	0
1	316	6101.710997471625	0
1	319	6142.500362368365	0
1	322	6244.512569885048	0
1	325	6323.966098126086	0
1	327	6332.588911420658	0
1	331	6396.931737749105	0
1	333	6422.999392623652	0
1	336	6445.385576125885	0
1	340	6491.417475571216	0
1	343	6537.237889458462	0
1	344	6539.709001657783	0
1	349	6646.712577512883	0
1	352	6700.519202696679	0
1	355	6824.989422929943	0
1	357	6854.163122992652	0
1	360	6886.064010182949	0
1	363	6897.911854734826	0
1	367	6919.102670738359	0
1	371	7052.304038120107	0
1	373	7059.207621077205	0
1	378	7085.074764157046	1
1	381	7095.643731223087	0
1	384	7128.122581122036	0
1	388	7174.275835351253	0
1	391	7215.158966932756	0
1	394	7253.330381364891	0
1	397	7312.330959281598	0
1	399	7321.530053038641	0
1	404	7346.229140634692	1
1	408	7357.15441704824	1
1	412	7379.889375449587	1
1	415	7392.918698908867	0
1	419	7490.716245661412	0
1	421	7496.318418337309	0
1	425	7537.504369746783	0
1	428	7574.089533920603	0
1	431	7637.323362774775	0
1	433	7658.156938035361	0
1	437	7723.988943547688	0
1	439	7742.200469447036	0
1	443	7756.021616076732	0
1	447	7778.565061683122	0
1	451	7817.484920468944	0
1	454	7868.809424308536	0
1	456	7876.966048721939	0
1	460	7902.723873331897	0
1	464	7963.83973991582	0
1	466	7979.98660367648	0
1	469	8014.171887870944	0
1	472	8023.944221564342	0
1	476	8099.743344447189	0
1	479	8158.604684531287	0
1	482	8201.075114809491	0
1	485	8301.291031932894	0
1	487	8310.926706709682	0
1	491	8371.277482513484	0
1	493	8383.780543893459	0
1	496	8418.041052561877	0
1	499	8433.06149566163	0
1	502	8465.281630499935	0
1	505	8468.070955907868	0
1	510	8513.005794539809	0
1	512	8543.075987955901	0
1	516	8632.521740859138	0
1	517	8633.965068361325	0
1	522	8665.077354583748	0
1	526	8721.049669481657	0
1	528	8734.967550472555	0
1	532	8831.389469678134	0
1	535	8882.747668935269	0
1	538	8998.13847653539	0
1	541	9047.925137121114	0
1	544	9148.646764818889	0
1	546	9169.086484117096	0
1	549	9189.469926368545	0
1	553	9240.753864453937	0
1	555	9248.175777813849	0
1	559	9273.452219358079	0
1	563	9325.606649245671	0
1	566	9402.18524572735	0
1	569	9478.912505006151	0
1	572	9576.50647403914	0
1	575	9618.9125688369	0
1	578	9657.97820505009	0
1	581	9728.86194170394	0
1	584	9822.176524812462	0
1	587	9856.66365488532	0
1	589	9868.284252666056	0
1	592	9902.065816349793	0
1	595	9923.573220712097	0
1	599	9934.571302186838	0
1	603	9975.918199498799	0
1	605	10000.599952445223	0
1	609	10009.152715001097	0
1	613	10037.108424218754	0
1	617	10116.625492441719	0
1	620	10157.4877347075	0
1	623	10225.646515665884	0
1	625	10229.740384614397	0
1	630	10259.025728571293	1
1	633	10265.003154247263	0
1	639	10291.625866710368	2
1	643	10301.28571048699	2
1	648	10323.993306850263	3
1	653	10337.306955990644	4
1	656	10357.281988035564	3
1	660	10373.287055413107	3
1	664	10389.597548545762	3
1	667	10408.768527410613	2
1	672	10423.129475044417	3
1	676	10444.681894003867	3
1	680	10455.887516266408	3
1	683	10479.694481810708	2
1	687	10488.958905224643	2
1	690	10515.228508692958	1
1	694	10522.97007534955	1
1	697	10551.153435153815	0
1	701	10611.695564212551	0
1	703	10629.783173508214	0
1	707	10645.485730603027	0
1	711	10666.362446052247	0
1	715	10799.280976452626	0
1	718	10835.430877494257	0
1	720	10861.057399656664	0
1	723	10867.798114426773	0
1	727	11008.144477767006	0
1	729	11027.24280961001	0
1	733	11087.527956777572	0
1	735	11102.317786317342	0
1	739	11119.944514416424	0
1	743	11178.55886265753	0
1	745	11207.159224620374	0
1	748	11211.837520241899	0
1	753	11262.589714890293	0
1	756	11350.11150422458	0
1	758	11373.906761130837	0
1	761	11397.69454926544	0
1	765	11767.953715257916	0
1	768	11870.743840780319	0
1	771	11913.858250398432	0
1	773	11932.348069911958	0
1	777	11977.375015073493	0
1	780	12092.405210303877	0
1	782	12108.00796954074	0
1	786	12126.032499151327	0
1	790	12198.105808613951	0
1	793	12315.746393140891	0
1	795	12347.030202010914	0
1	797	12350.181773195087	0
1	804	12382.702919830004	2
1	806	12383.582663990398	1
1	810	12416.554933878758	0
1	814	12471.661455608887	0
1	817	12639.923298585158	0
1	820	12736.787087324381	0
1	823	12976.622560399864	0
1	826	13100.258192363044	0
1	828	13104.745111172748	0
1	832	13153.28357293246	0
1	834	13168.497772855443	0
1	838	13286.413315547798	0
1	841	13403.820307697088	0
1	844	13525.458348319457	0
1	847	13710.925375766389	0
1	849	13720.479818359376	0
1	853	13743.679687144468	0
1	857	13784.563792397899	0
1	860	13818.766739378915	0
1	862	13834.160058640311	0
1	865	13856.743899187177	0
1	869	13935.611196020387	0
1	870	13937.312492357048	0
1	875	13968.761544390665	0
1	879	14015.259177804061	0
1	882	14165.222972933176	0
1	884	14175.557198515671	0
1	888	14198.590480201507	0
1	892	14211.583291603944	0
1	896	14297.651083191579	0
1	899	14406.310482615679	0
1	902	14577.961260003559	0
1	905	14634.793376708068	0
1	908	14806.646209800341	0
1	910	14832.051774167572	0
1	913	14856.521843269188	0
1	916	14870.312577076945	0
1	920	14922.920853091379	0
1	921	14924.91313234553	0
1	926	14955.630098192554	0
1	930	14998.451284376773	0
1	932	15023.783009298629	0
1	936	15088.603920691977	0
1	939	15195.114677349392	0
1	941	15202.828571735504	0
1	945	15228.863720099514	0
1	948	15239.917757546642	0
1	952	15280.064286697598	0
1	955	15453.04370826293	0
1	956	15455.595586605032	0
1	961	15500.340837141318	0
1	964	15673.599757372557	0
1	967	15712.660775885503	0
1	970	15761.509259730408	0
1	973	15817.618219741572	0
1	976	15933.555358465799	0
1	979	16076.196676752007	0
1	981	16084.480425472297	0
1	985	16109.466632162015	0
1	988	16124.57929319862	0
1	992	16174.228222087304	0
1	995	16247.313470651357	0
1	998	16380.096507631124	0
1	1000	16413.050520842343	0
1	1003	16443.356612180685	0
1	1007	16499.185240810307	0
1	1010	16553.367934339279	0
1	1013	16607.7376074967	0
1	1016	16679.964453303824	0
1	1019	16769.175019563028	0
1	1022	16819.28973534959	0
1	1023	16820.510613973239	0
1	1027	16855.378754963364	0
1	1031	16951.24743085883	0
1	1034	16989.334232303093	0
1	1037	17058.355293084448	0
1	1039	17077.601755655728	0
1	1043	17126.856940997715	0
1	1045	17152.333878958041	0
1	1049	17242.241725823893	0
1	1051	17268.387616522613	0
1	1055	17353.077128902846	0
1	1056	17355.144992362646	0
1	1061	17518.751154375057	0
1	1063	17522.730341001775	0
1	1067	17570.633805919457	0
1	1070	17617.337093387836	0
1	1073	17739.561102397594	0
1	1076	17840.198701900168	0
1	1078	17845.33368342734	0
1	1082	17903.79083319292	0
1	1084	17908.714121137484	0
1	1088	17987.933994926881	0
1	1090	17991.740463675656	0
1	1094	18033.850657681619	0
1	1097	18100.178714375638	0
1	1100	18156.555882218835	0
1	1103	18330.147264288042	0
1	1106	18372.493119774346	0
1	1109	18413.012369428745	0
1	1111	18436.255653572243	0
1	1115	18446.201645825602	0
1	1119	18547.259724687509	0
1	1121	18553.277044225807	0
1	1125	18580.764356496518	0
1	1129	18653.186710493786	0
1	1131	18666.867370023726	0
1	1135	18747.446086782302	0
1	1136	18749.784297883325	0
1	1142	18780.522786519425	1
1	1145	18785.442063205125	0
1	1149	18812.620034039054	0
1	1153	18821.556422045986	0
1	1157	18987.386972860852	0
1	1160	19025.901282400528	0
1	1163	19102.676182628499	0
1	1166	19285.67138220408	0
1	1168	19302.27912528058	0
1	1172	19317.563137787871	0
1	1176	19440.006462089778	0
1	1179	19529.896030100962	0
1	1181	19552.218475231748	0
1	1185	19629.349527241103	0
1	1187	19633.932494594235	0
1	1191	19757.083381046996	0
1	1193	19783.87340183161	0
1	1197	19821.150625028201	0
1	1200	19864.772684768211	0
1	1203	19918.289122039264	0
1	1206	19974.172436345595	0
1	1208	19981.409984337852	0
1	1211	20015.879861692169	0
1	1214	20021.57186272488	0
1	1218	20049.18934812786	0
1	1222	20057.691374926144	0
1	1228	20082.784441858919	2
1	1231	20093.455326247437	1
1	1235	20115.140220451839	1
1	1238	20129.518445179521	0
1	1242	20148.402826629338	0
1	1246	20229.819883037827	0
1	1248	20261.394405705246	0
1	1251	20282.189826043847	0
1	1254	20305.034019022094	0
1	1257	20322.850653022307	0
1	1261	20380.737363123379	0
1	1263	20392.224246561671	0
1	1267	20509.669976565988	0
1	1269	20535.337781111715	0
1	1273	20623.634287617862	0
1	1276	20704.170549309137	0
1	1279	20768.319067433653	0
1	1282	20916.230764018326	0
1	1284	20930.528515763755	0
1	1288	20976.492369632566	0
1	1289	20979.073768327632	0
1	1294	21009.455520299194	0
1	1298	21057.269462085876	0
1	1300	21070.539018228037	0
1	1303	21097.32112810088	0
1	1307	21188.360430658471	0
1	1309	21205.768531731619	0
1	1312	21224.647376907573	0
1	1316	21281.090692150877	0
1	1317	21282.681597306959	0
1	1322	21313.646367688118	0
1	1326	21397.433585207645	0
1	1328	21427.093188085252	0
1	1331	21440.058070296381	0
1	1334	21465.599715004486	0
1	1337	21486.922001492695	0
1	1341	21527.48763966077	0
1	1344	21571.242940671687	0
1	1347	21626.343634770734	0
1	1349	21634.13658332027	0
1	1353	21737.980450487671	0
1	1356	21785.850069565387	0
1	1358	21812.936570516414	0
1	1361	21842.65652450041	0
1	1366	21848.344754438823	1
1	1369	21874.947080941926	0
1	1373	21953.397081336326	0
1	1375	21976.813231780816	0
1	1379	21985.752409784333	0
1	1383	22012.672022047379	0
1	1386	22018.316558381012	0
1	1391	22087.17280854534	0
1	1394	22141.320346927683	0
1	1397	22176.644458712338	0
1	1398	22178.713898188149	0
1	1404	22208.410916399862	1
1	1407	22215.237607606964	0
1	1412	22241.627221890985	1
1	1415	22250.927904101074	0
1	1420	22274.452432587275	1
1	1423	22287.262782674763	0
1	1428	22307.408494535164	1
1	1432	22322.983433168658	1
1	1437	22340.723039384035	2
1	1441	22358.498116276443	2
1	1444	22374.48171703684	1
1	1448	22396.005440508805	1
1	1451	22406.85193842583	0
1	1455	22432.201313762845	0
1	1459	22516.967703397905	0
1	1462	22684.16879421514	0
1	1465	22867.267151394745	0
1	1468	22926.677392370003	0
1	1470	22941.563371106249	0
1	1474	23018.880402881789	0
1	1476	23024.175115051704	0
1	1480	23179.424628421372	0
1	1482	23192.256928621765	0
1	1486	23281.547662588391	0
1	1489	23386.793372989682	0
1	1492	23455.154334686092	0
1	1495	23529.626649600785	0
1	1497	23545.515098738187	0
1	1501	23600.690886654706	0
1	1504	23649.271993471504	0
1	1505	23651.315245825728	0
1	1510	23690.627935138675	0
1	1512	23713.107274067049	0
1	1516	23786.403554156001	0
1	1518	23793.568689999231	0
1	1522	23819.89098596031	0
1	1525	23838.421751820667	0
1	1529	23853.712924276259	0
1	1533	23903.639312552051	0
1	1534	23904.497482175556	0
1	1539	24099.661756276555	0
1	1541	24104.100471315998	0
1	1544	24135.263887270042	0
1	1547	24161.327652658638	0
1	1550	24175.621449721034	0
1	1554	24207.965945296278	0
1	1557	24337.732481872269	0
1	1559	24344.670105468028	0
1	1563	24371.538301175432	0
1	1567	24430.313089707476	0
1	1569	24433.705625300239	0
1	1573	24463.682129671702	0
1	1576	24490.480352509417	0
1	1580	24528.666079930926	0
1	1582	24541.316631086645	0
1	1585	24565.214105795029	0
1	1588	24586.676622319249	0
1	1592	24632.439548622667	0
1	1594	24642.389870522731	0
1	1598	24665.974843124479	0
1	1602	24708.948844315841	0
1	1605	24939.858621215495	0
1	1608	25002.368633916807	0
1	1610	25022.826955140114	0
1	1614	25135.877305063465	0
1	1617	25176.730601705742	0
1	1619	25188.335817152619	0
1	1623	25327.883932984321	0
1	1625	25356.558573144096	0
1	1628	25360.805446911079	0
1	1633	25397.178336309441	0
1	1636	25491.506004984639	0
1	1637	25493.757202893053	0
1	1642	25525.016099867409	0
1	1646	25602.056378386681	0
1	1647	25603.524597167039	0
1	1652	25634.872585121454	0
1	1655	25661.724731812047	0
1	1659	25780.234506593483	0
1	1662	25881.680157424852	0
1	1664	25889.54450026922	0
1	1668	25938.106230311937	0
1	1670	25947.208408241131	0
1	1674	25970.678093164836	0
1	1677	25990.983731891088	0
1	1681	26003.536928133599	0
1	1685	26026.690125460437	0
1	1688	26044.046529659969	0
1	1692	26063.066509091342	0
1	1695	26090.555121671368	0
1	1699	26216.76909054339	0
1	1702	26280.26760665361	0
1	1704	26306.003028046928	0
1	1707	26325.106264473296	0
1	1712	26342.715092365977	1
1	1715	26358.697141853638	0
1	1719	26448.139209637121	0
1	1722	26507.535773769383	0
1	1724	26514.748743405236	0
1	1728	26616.014066967946	0
1	1730	26629.41987279682	0
1	1734	26648.470992085404	0
1	1738	26687.381073312372	0
1	1740	26714.299750689316	0
1	1744	26769.178077010341	0
1	1747	26817.993101940955	0
1	1750	26852.431720405049	0
1	1752	26884.982151254956	0
1	1755	26899.692689311014	0
1	1759	26922.537598255539	0
1	1763	27035.179409414514	0
1	1766	27089.225392602956	0
1	1769	27143.789421086587	0
1	1772	27210.064405295653	0
1	1774	27217.069799896921	0
1	1778	27242.963549419307	0
1	1782	27282.828535277794	0
1	1784	27304.913832528888	0
1	1787	27322.428607221811	0
1	1790	27342.873804071237	0
1	1793	27367.874216035415	0
1	1797	27379.203155142871	0
1	1801	27422.0383943976	0
1	1803	27452.022516294308	0
1	1806	27480.543861242689	0
1	1810	27546.753729775456	0
1	1812	27553.559260100409	0
1	1816	27726.975977989762	0
1	1818	27754.570059659115	0
1	1820	27760.114030890652	0
1	1825	27854.481833245582	0
1	1828	27889.188271325129	0
1	1831	27941.785206041924	0
1	1834	28020.047706102138	0
1	1835	28021.061927100933	0
1	1840	28150.277811550674	0
1	1843	28206.286340389055	0
1	1846	28252.834255500105	0
1	1848	28256.087455257225	0
1	1852	28285.437580022868	0
1	1856	28449.35352905572	0
1	1858	28465.684532032057	0
1	1861	28485.482007742689	0
1	1865	28501.293700328908	0
1	1869	28518.320148825124	0
1	1873	28537.403366704084	0
1	1876	28565.113668899579	0
1	1880	28604.301864361442	0
1	1882	28632.818822191152	0
1	1886	28740.517596693735	0
1	1888	28764.427963896925	0
1	1892	28936.23104355385	0
1	1895	29015.342400696147	0
1	1898	29071.593109510357	0
1	1900	29079.037521575177	0
1	1904	29198.526565442222	0
1	1907	29311.995172192343	0
1	1910	29359.981729319609	0
1	1912	29377.878289744191	0
1	1916	29501.383633176177	0
1	1919	29564.990816923197	0
1	1921	29570.60025204169	0
1	1925	29597.901924363656	0
1	1929	29771.953429355614	0
1	1932	29854.492820708815	0
1	1934	29881.039742468458	0
1	1938	30195.400454395618	0
1	1941	30295.70901548037	0
1	1944	30331.61859187657	0
1	1947	30383.012520863999	0
1	1949	30411.139392938403	0
1	1953	30457.740594575973	0
1	1955	30474.517480145095	0
1	1959	30565.789950536061	0
1	1961	30574.237022476121	0
1	1965	30660.928751258912	0
1	1967	30678.741147658707	0
1	1971	30737.797560059183	0
1	1974	30948.980168356479	0
1	1976	30974.855631987227	0
1	1980	31042.143927224065	0
1	1981	31044.719381440358	0
1	1986	31113.048246531096	0
1	1988	31123.420997130961	0
1	1992	31146.432073791663	0
1	1995	31172.757876368274	0
1	1999	31179.782395681558	0
1	2003	31225.150175673515	0
1	2005	31242.419105021329	0
1	2009	31257.793260140528	0
1	2013	31277.828231490082	0
1	2016	31291.259389862416	0
1	2020	31346.086735232946	0
1	2022	31350.187282116781	0
1	2027	31379.689191444024	1
1	2031	31386.547097505713	1
1	2034	31412.788281008724	0
1	2037	31423.637762887745	0
1	2041	31473.772316672184	0
1	2044	31542.158283062454	0
1	2047	31686.636239896797	0
1	2050	31858.411018989902	0
1	2052	31878.404404768322	0
1	2055	31891.708805613069	0
1	2059	32029.276559148855	0
1	2061	32040.272137430802	0
1	2064	32071.248919927998	0
1	2067	32082.573746261564	0
1	2070	32105.409883814025	0
1	2074	32151.122270536287	0
1	2077	32191.444913488124	0
1	2080	32310.766318468073	0
1	2083	32347.812356493934	0
1	2085	32356.592959645351	0
1	2089	32437.927600466711	0
1	2092	32560.107653494641	0
1	2094	32572.924030107762	0
1	2098	32591.950940491474	0
1	2102	32679.882281980644	0
1	2104	32703.66182993811	0
1	2108	32743.365746516339	0
1	2110	32761.020823920656	0
1	2114	32776.80996291737	0
1	2118	32928.754030235357	0
1	2120	32935.618609663132	0
1	2124	33124.322924459496	0
1	2127	33218.046152210129	0
1	2130	33251.169404588201	0
1	2132	33278.540797347228	0
1	2136	33390.115665986483	0
1	2139	33503.663948145945	0
1	2142	33540.268082738544	0
1	2144	33546.803279495506	0
1	2148	33637.933182006296	0
1	2150	33646.937332391797	0
1	2155	33670.295995290025	1
1	2159	33681.757294138773	1
1	2162	33703.065188132083	0
1	2166	33718.168654238724	0
1	2170	33757.922246473894	0
1	2173	33828.764600951614	0
1	2176	33940.077536352672	0
1	2179	34051.457543435616	0
1	2181	34065.559289668932	0
1	2185	34084.552752787602	0
1	2189	34183.945155167782	0
1	2192	34244.711561028118	0
1	2194	34276.088802794924	0
1	2197	34286.360562422085	0
1	2201	34479.488366362455	0
1	2204	34583.957527807938	0
1	2206	34600.791072533546	0
1	2210	34637.411468386482	0
1	2213	34727.629656943023	0
1	2215	34752.299592929071	0
1	2218	34760.087658090261	0
1	2221	34792.393772248088	0
1	2224	34805.633770112673	0
1	2228	34908.046397148829	0
1	2231	35056.395961809557	0
1	2234	35121.747156560953	0
1	2236	35126.798751890923	0
1	2241	35154.155372820874	1
1	2244	35162.874897648793	0
1	2248	35267.624407611967	0
1	2250	35271.654390601166	0
1	2254	35300.731718160913	0
1	2258	35435.488186790088	0
1	2261	35519.296349225137	0
1	2263	35531.098744161896	0
1	2266	35565.020814050201	0
1	2270	35668.638191986892	0
1	2273	35712.440356654007	0
1	2276	35796.05739677398	0
1	2278	35799.331368439432	0
1	2283	35828.799934941542	1
1	2286	35835.818220805912	0
1	2290	35894.446388485496	0
1	2293	36052.092409671769	0
1	2296	36133.757452445101	0
1	2298	36147.476254053829	0
1	2302	36225.93166613262	0
1	2305	36297.756692451905	0
1	2308	36358.354954380671	0
1	2311	36397.22713643924	0
1	2314	36449.6431352717	0
1	2317	36503.28512464123	0
1	2320	36582.345067811262	0
1	2323	36658.770144884964	0
1	2324	36660.986871336605	0
1	2329	36709.042907170727	0
1	2332	36746.116164725594	0
1	2335	36804.797095260505	0
1	2337	36818.081027606603	0
1	2340	36843.965755932145	0
1	2344	36942.277522026156	0
1	2347	37018.662375839042	0
1	2350	37076.794270819148	0
1	2353	37209.220284984472	0
1	2356	37294.807133686357	0
1	2359	37395.356142866392	0
1	2361	37411.946977496217	0
1	2365	37428.063586727492	0
1	2369	37448.255888292433	0
1	2372	37466.61392401004	0
1	2376	37545.310855617564	0
1	2379	37596.689809685779	0
1	2382	37697.391239058859	0
1	2384	37728.931046896926	0
1	2387	37762.197487770818	0
1	2391	37873.171599216376	0
1	2393	37889.339822830685	0
1	2397	38044.931185015684	0
1	2400	38117.988797177355	0
1	2403	38335.896917472747	0
1	2405	38342.997716720262	0
1	2409	38368.773010346857	0
1	2412	38398.619986052602	0
1	2416	38508.831078806436	0
1	2419	38583.290589377356	0
1	2422	38633.165054205877	0
1	2425	38787.935073117063	0
1	2428	38827.618004204442	0
1	2430	38852.496775160055	0
1	2434	38951.95674857862	0
1	2437	39010.254773971389	0
1	2439	39021.802399771442	0
1	2443	39042.602091670761	0
1	2446	39067.209209826366	0
1	2450	39075.941656609398	0
1	2454	39102.932200601744	0
1	2458	39284.489168549092	0
1	2461	39322.564311922497	0
1	2463	39355.645658843786	0
1	2467	39411.440572358553	0
1	2469	39442.818160733502	0
1	2472	39450.617814757274	0
1	2476	39505.707172906684	0
1	2479	39622.207942243255	0
1	2481	39629.209501865211	0
1	2485	39801.345706897448	0
1	2487	39830.372014742952	0
1	2490	39850.792246772953	0
1	2494	39932.450011998515	0
1	2496	39945.261542834081	0
1	2500	40023.792566222858	0
1	2503	40214.140062862901	0
1	2505	40242.908034173584	0
1	2509	40282.749076510882	0
1	2510	40285.503559376098	0
1	2515	40358.773560769199	0
1	2518	40400.980389654736	0
1	2520	40423.086289193794	0
1	2523	40434.994142070447	0
1	2527	40458.954888070544	0
1	2530	40477.279561986446	0
1	2533	40495.683603707403	0
1	2536	40515.581407837354	0
1	2541	40532.571188783895	1
1	2545	40548.530571788284	1
1	2548	40568.43673728595	0
1	2552	40582.298840963894	0
1	2556	40604.03858275049	0
1	2559	40632.721174343913	0
1	2563	40640.186679473375	0
1	2567	40762.30178919016	0
1	2569	40784.533907091362	0
1	2573	40953.388451250024	0
1	2576	41046.779189673452	0
1	2579	41096.574640337976	0
1	2582	41190.318207810582	0
1	2584	41205.072379088283	0
1	2588	41322.149149379201	0
1	2591	41372.811347803452	0
1	2593	41394.00824855287	0
1	2598	41405.984718708508	1
1	2602	41430.916607955369	1
1	2606	41438.396935157988	1
1	2609	41467.380569784953	0
1	2612	41471.913588579519	0
1	2618	41503.430685858908	1
1	2620	41504.55911776751	0
1	2625	41537.816288328148	0
1	2629	41665.302298458595	0
1	2632	41749.144393622139	0
1	2635	41865.18045084263	0
1	2637	41883.35450970657	0
1	2641	41933.44577937143	0
1	2643	41937.304230717777	0
1	2647	41975.314007788746	0
1	2650	42165.878097931687	0
1	2652	42177.760449916024	0
1	2655	42211.259400038059	0
1	2659	42259.837115542599	0
1	2662	42357.774965030188	0
1	2664	42380.167143810079	0
1	2668	42439.682048405432	0
1	2670	42443.023054057108	0
1	2674	42472.71797614015	0
1	2678	42599.893666225589	0
1	2680	42604.287445607805	0
1	2684	42633.097814738948	0
1	2688	42640.100762002612	0
1	2692	42734.740166906856	0
1	2695	42785.894404012294	0
1	2696	42787.704101233184	0
1	2701	42891.398644267793	0
1	2704	42928.121078564589	0
1	2707	42970.867085579167	0
1	2709	42989.02934757256	0
1	2713	43195.822077591239	0
2	1	7	0
2	4	95.707541441742	0
2	7	155.315967036998	0
2	10	265.78966029571	0
2	12	279.370030184694	0
2	16	455.353905819047	0
2	19	537.548881692159	0
2	22	572.875799688822	0
2	24	600.854786223111	0
2	27	613.733468655717	0
2	31	637.624133504973	0.909714548732
2	35	750.385086311514	0
2	37	779.342047439836	0
2	40	804.284348371593	0
2	44	815.685206199427	8.813317201454
2	48	903.668354452175	0
2	50	921.563471114899	0
2	54	936.424707416422	13.821748330114
2	58	978.233560217982	0
2	61	1015.688745226901	0
2	64	1075.798202058099	0
2	67	1161.968329415752	0
2	69	1185.439381950682	0
2	73	1195.693519969174	7.53021914053
2	77	1230.59774783523	0
2	80	1336.006375242337	0
2	82	1352.704280631829	0
2	85	1387.021283424523	0
2	89	1465.30185828095	0
2	92	1525.161433638824	0
2	95	1685.985908022655	0
2	97	1706.886703762157	0
2	101	1806.057677712636	0
2	104	1843.517259113162	0
2	106	1862.815817401452	0
2	110	1912.821746997487	0
2	113	1976.851363518856	0
2	115	1985.426114399717	0
2	119	2034.003299525001	0
2	122	2070.921299507796	0
2	125	2129.162204674812	0
2	127	2159.180308192373	0
2	131	2238.369814137499	0
2	133	2257.760236405606	0
2	137	2270.736131058132	9.27352521766
2	141	2463.146385178882	0
2	144	2599.595161921765	0
2	147	2639.316116246924	0
2	150	2719.725880700901	0
2	152	2751.358205648059	0
2	156	2905.864555677059	0
2	158	2920.398656304452	0
2	162	3014.783226403673	0
2	165	3139.381723472135	0
2	168	3199.058365645518	0
2	171	3327.039090484039	0
2	173	3336.522584424734	0
2	177	3379.018904682764	0
2	179	3395.023433608664	0
2	182	3424.281141854431	0
2	185	3456.252663937075	0
2	189	3500.080254602499	0
2	192	3600.446356724673	0
2	195	3694.092394038975	0
2	197	3702.191480533449	0
2	201	3739.060171376436	0
2	204	3831.985407420855	0
2	206	3863.224189033232	0
2	209	3870.078532280091	0
2	213	3914.35841793013	0
2	216	4043.950282513208	0
2	218	4057.791532496409	0
2	222	4129.71620912608	0
2	224	4139.629164554565	0
2	228	4163.207790416047	22.379473410761
2	231	4186.235407887365	0
2	235	4228.472374011109	0
2	237	4248.224047423587	0
2	240	4280.965952064177	0
2	244	4400.940855940659	0
2	247	4449.60299101397	0
2	249	4457.496474527452	0
2	253	4554.438231971088	0
2	256	4591.599641087023	0
2	259	4746.70997186909	0
2	262	4830.406305053593	0
2	265	4956.350340521251	0
2	268	5030.695110197529	0
2	270	5049.647628678197	0
2	274	5112.655388968447	0
2	277	5301.684085081928	0
2	280	5351.52737820039	0
2	283	5434.924703193292	0
2	286	5502.435513690599	0
2	288	5508.921590351074	0
2	292	5693.071148010544	0
2	295	5764.274918792017	0
2	296	5765.156729397739	0
2	301	5844.168572946131	0
2	304	5893.136541820019	0
2	307	5932.05295561031	0
2	308	5934.345573114279	0
2	313	5982.873442211266	0
2	316	6101.710997471625	0
2	319	6142.500362368365	0
2	322	6244.512569885048	0
2	325	6323.966098126086	0
2	327	6332.588911420658	0
2	331	6396.931737749105	0
2	333	6422.999392623652	0
2	336	6445.385576125885	0
2	340	6491.417475571216	0
2	343	6537.237889458462	0
2	344	6539.709001657783	0
2	349	6646.712577512883	0
2	352	6700.519202696679	0
2	355	6824.989422929943	0
2	357	6854.163122992652	0
2	360	6886.064010182949	0
2	363	6897.911854734826	0
2	367	6919.102670738359	10.369773737131
2	371	7052.304038120107	0
2	373	7059.207621077205	0
2	378	7085.074764157046	23.640312390611
2	381	7095.643731223087	10.892443199622
2	384	7128.122581122036	0
2	388	7174.275835351253	0
2	391	7215.158966932756	0
2	394	7253.330381364891	0
2	397	7312.330959281598	0
2	399	7321.530053038641	0
2	404	7346.229140634692	22.550647829543
2	408	7357.15441704824	23.066818154008
2	412	7379.889375449587	32.983920525641
2	415	7392.918698908867	20.046087551284
2	419	7490.716245661412	0
2	421	7496.318418337309	0
2	425	7537.504369746783	0
2	428	7574.089533920603	0
2	431	7637.323362774775	0
2	433	7658.156938035361	0
2	437	7723.988943547688	0
2	439	7742.200469447036	0
2	443	7756.021616076732	7.194345382781
2	447	7778.565061683122	18.332890918186
2	451	7817.484920468944	0
2	454	7868.809424308536	0
2	456	7876.966048721939	0
2	460	7902.723873331897	6.985632925491
2	464	7963.83973991582	0
2	466	7979.98660367648	0
2	469	8014.171887870944	0
2	472	8023.944221564342	0
2	476	8099.743344447189	0
2	479	8158.604684531287	0
2	482	8201.075114809491	0
2	485	8301.291031932894	0
2	487	8310.926706709682	0
2	491	8371.277482513484	0
2	493	8383.780543893459	0
2	496	8418.041052561877	0
2	499	8433.06149566163	0
2	502	8465.281630499935	0
2	505	8468.070955907868	2.059678342617
2	510	8513.005794539809	0
2	512	8543.075987955901	0
2	516	8632.521740859138	0
2	517	8633.965068361325	0
2	522	8665.077354583748	16.583712294823
2	526	8721.049669481657	0
2	528	8734.967550472555	0
2	532	8831.389469678134	0
2	535	8882.747668935269	0
2	538	8998.13847653539	0
2	541	9047.925137121114	0
2	544	9148.646764818889	0
2	546	9169.086484117096	0
2	549	9189.469926368545	0
2	553	9240.753864453937	0
2	555	9248.175777813849	0
2	559	9273.452219358079	23.484370175322
2	563	9325.606649245671	0
2	566	9402.18524572735	0
2	569	9478.912505006151	0
2	572	9576.50647403914	0
2	575	9618.9125688369	0
2	578	9657.97820505009	0
2	581	9728.86194170394	0
2	584	9822.176524812462	0
2	587	9856.66365488532	0
2	589	9868.284252666056	0
2	592	9902.065816349793	0
2	595	9923.573220712097	0
2	599	9934.571302186838	5.197474983818
2	603	9975.918199498799	0
2	605	10000.599952445223	0
2	609	10009.152715001097	2.697621105361
2	613	10037.108424218754	27.750288342759
2	617	10116.625492441719	0
2	620	10157.4877347075	0
2	623	10225.646515665884	0
2	625	10229.740384614397	0
2	630	10259.025728571293	6.646341485806
2	633	10265.003154247263	6.895600070751
2	639	10291.625866710368	21.461148158913
2	643	10301.28571048699	21.228452637089
2	648	10323.993306850263	33.364189264428
2	653	10337.306955990644	36.426593509921
2	656	10357.281988035564	49.50769794766
2	660	10373.287055413107	50.983580390798
2	664	10389.597548545762	64.771263529256
2	667	10408.768527410613	81.384566196089
2	672	10423.129475044417	63.889681280331
2	676	10444.681894003867	70.4482075591
2	680	10455.887516266408	44.498901976882
2	683	10479.694481810708	62.40200940535
2	687	10488.958905224643	48.547815965238
2	690	10515.228508692958	64.499618947991
2	694	10522.97007534955	40.954333300807
2	697	10551.153435153815	35.740470982143
2	701	10611.695564212551	0
2	703	10629.783173508214	0
2	707	10645.485730603027	12.852205110332
2	711	10666.362446052247	14.686183917422
2	715	10799.280976452626	0
2	718	10835.430877494257	0
2	720	10861.057399656664	0
2	723	10867.798114426773	0
2	727	11008.144477767006	0
2	729	11027.24280961001	0
2	733	11087.527956777572	0
2	735	11102.317786317342	0
2	739	11119.944514416424	9.449442269984
2	743	11178.55886265753	0
2	745	11207.159224620374	0
2	748	11211.837520241899	2.202752558408
2	753	11262.589714890293	0
2	756	11350.11150422458	0
2	758	11373.906761130837	0
2	761	11397.69454926544	0
2	765	11767.953715257916	0
2	768	11870.743840780319	0
2	771	11913.858250398432	0
2	773	11932.348069911958	0
2	777	11977.375015073493	0
2	780	12092.405210303877	0
2	782	12108.00796954074	0
2	786	12126.032499151327	1.836886632616
2	790	12198.105808613951	0
2	793	12315.746393140891	0
2	795	12347.030202010914	0
2	797	12350.181773195087	0
2	804	12382.702919830004	11.453717252629
2	806	12383.582663990398	10.255719830297
2	810	12416.554933878758	37.047819809834
2	814	12471.661455608887	0
2	817	12639.923298585158	0
2	820	12736.787087324381	0
2	823	12976.622560399864	0
2	826	13100.258192363044	0
2	828	13104.745111172748	0
2	832	13153.28357293246	0
2	834	13168.497772855443	0
2	838	13286.413315547798	0
2	841	13403.820307697088	0
2	844	13525.458348319457	0
2	847	13710.925375766389	0
2	849	13720.479818359376	0
2	853	13743.679687144468	11.979536583544
2	857	13784.563792397899	0
2	860	13818.766739378915	0
2	862	13834.160058640311	0
2	865	13856.743899187177	0
2	869	13935.611196020387	0
2	870	13937.312492357048	0
2	875	13968.761544390665	12.621541232127
2	879	14015.259177804061	0
2	882	14165.222972933176	0
2	884	14175.557198515671	0
2	888	14198.590480201507	22.301659268163
2	892	14211.583291603944	11.383395141429
2	896	14297.651083191579	0
2	899	14406.310482615679	0
2	902	14577.961260003559	0
2	905	14634.793376708068	0
2	908	14806.646209800341	0
2	910	14832.051774167572	0
2	913	14856.521843269188	0
2	916	14870.312577076945	0
2	920	14922.920853091379	0
2	921	14924.91313234553	0
2	926	14955.630098192554	3.411810283269
2	930	14998.451284376773	0
2	932	15023.783009298629	0
2	936	15088.603920691977	0
2	939	15195.114677349392	0
2	941	15202.828571735504	0
2	945	15228.863720099514	7.753754292033
2	948	15239.917757546642	0
2	952	15280.064286697598	0
2	955	15453.04370826293	0
2	956	15455.595586605032	0
2	961	15500.340837141318	0
2	964	15673.599757372557	0
2	967	15712.660775885503	0
2	970	15761.509259730408	0
2	973	15817.618219741572	0
2	976	15933.555358465799	0
2	979	16076.196676752007	0
2	981	16084.480425472297	0
2	985	16109.466632162015	3.153205710795
2	988	16124.57929319862	0
2	992	16174.228222087304	0
2	995	16247.313470651357	0
2	998	16380.096507631124	0
2	1000	16413.050520842343	0
2	1003	16443.356612180685	0
2	1007	16499.185240810307	0
2	1010	16553.367934339279	0
2	1013	16607.7376074967	0
2	1016	16679.964453303824	0
2	1019	16769.175019563028	0
2	1022	16819.28973534959	0
2	1023	16820.510613973239	0
2	1027	16855.378754963364	0
2	1031	16951.24743085883	0
2	1034	16989.334232303093	0
2	1037	17058.355293084448	0
2	1039	17077.601755655728	0
2	1043	17126.856940997715	0
2	1045	17152.333878958041	0
2	1049	17242.241725823893	0
2	1051	17268.387616522613	0
2	1055	17353.077128902846	0
2	1056	17355.144992362646	0
2	1061	17518.751154375057	0
2	1063	17522.730341001775	0
2	1067	17570.633805919457	0
2	1070	17617.337093387836	0
2	1073	17739.561102397594	0
2	1076	17840.198701900168	0
2	1078	17845.33368342734	0
2	1082	17903.79083319292	0
2	1084	17908.714121137484	0
2	1088	17987.933994926881	0
2	1090	17991.740463675656	0
2	1094	18033.850657681619	0
2	1097	18100.178714375638	0
2	1100	18156.555882218835	0
2	1103	18330.147264288042	0
2	1106	18372.493119774346	0
2	1109	18413.012369428745	0
2	1111	18436.255653572243	0
2	1115	18446.201645825602	3.734716445898
2	1119	18547.259724687509	0
2	1121	18553.277044225807	0
2	1125	18580.764356496518	5.20495273807
2	1129	18653.186710493786	0
2	1131	18666.867370023726	0
2	1135	18747.446086782302	0
2	1136	18749.784297883325	0
2	1142	18780.522786519425	15.537220015345
2	1145	18785.442063205125	5.26967504188
2	1149	18812.620034039054	13.340112010512
2	1153	18821.556422045986	3.473094217645
2	1157	18987.386972860852	0
2	1160	19025.901282400528	0
2	1163	19102.676182628499	0
2	1166	19285.67138220408	0
2	1168	19302.27912528058	0
2	1172	19317.563137787871	1.285971449131
2	1176	19440.006462089778	0
2	1179	19529.896030100962	0
2	1181	19552.218475231748	0
2	1185	19629.349527241103	0
2	1187	19633.932494594235	0
2	1191	19757.083381046996	0
2	1193	19783.87340183161	0
2	1197	19821.150625028201	0
2	1200	19864.772684768211	0
2	1203	19918.289122039264	0
2	1206	19974.172436345595	0
2	1208	19981.409984337852	0
2	1211	20015.879861692169	0
2	1214	20021.57186272488	0
2	1218	20049.18934812786	1.800937674494
2	1222	20057.691374926144	2.620875930105
2	1228	20082.784441858919	23.494728386016
2	1231	20093.455326247437	19.784266240888
2	1235	20115.140220451839	39.638659026552
2	1238	20129.518445179521	33.864550155427
2	1242	20148.402826629338	6.791866664243
2	1246	20229.819883037827	0
2	1248	20261.394405705246	0
2	1251	20282.189826043847	0
2	1254	20305.034019022094	0
2	1257	20322.850653022307	0
2	1261	20380.737363123379	0
2	1263	20392.224246561671	0
2	1267	20509.669976565988	0
2	1269	20535.337781111715	0
2	1273	20623.634287617862	0
2	1276	20704.170549309137	0
2	1279	20768.319067433653	0
2	1282	20916.230764018326	0
2	1284	20930.528515763755	0
2	1288	20976.492369632566	0
2	1289	20979.073768327632	0
2	1294	21009.455520299194	26.065096042454
2	1298	21057.269462085876	0
2	1300	21070.539018228037	0
2	1303	21097.32112810088	0
2	1307	21188.360430658471	0
2	1309	21205.768531731619	0
2	1312	21224.647376907573	0
2	1316	21281.090692150877	0
2	1317	21282.681597306959	0
2	1322	21313.646367688118	26.4509204098
2	1326	21397.433585207645	0
2	1328	21427.093188085252	0
2	1331	21440.058070296381	0
2	1334	21465.599715004486	0
2	1337	21486.922001492695	0
2	1341	21527.48763966077	0
2	1344	21571.242940671687	0
2	1347	21626.343634770734	0
2	1349	21634.13658332027	0
2	1353	21737.980450487671	0
2	1356	21785.850069565387	0
2	1358	21812.936570516414	0
2	1361	21842.65652450041	0
2	1366	21848.344754438823	0.672734381484
2	1369	21874.947080941926	26.612806419625
2	1373	21953.397081336326	0
2	1375	21976.813231780816	0
2	1379	21985.752409784333	1.156195871171
2	1383	22012.672022047379	20.613215478427
2	1386	22018.316558381012	3.27376163019
2	1391	22087.17280854534	0
2	1394	22141.320346927683	0
2	1397	22176.644458712338	0
2	1398	22178.713898188149	0
2	1404	22208.410916399862	29.641945424716
2	1407	22215.237607606964	20.81140365274
2	1412	22241.627221890985	12.694960757669
2	1415	22250.927904101074	16.484339168508
2	1420	22274.452432587275	23.447793050078
2	1423	22287.262782674763	12.817329578296
2	1428	22307.408494535164	12.104848983177
2	1432	22322.983433168658	17.025022696343
2	1437	22340.723039384035	29.827469084163
2	1441	22358.498116276443	27.7996897515
2	1444	22374.48171703684	39.560655840028
2	1448	22396.005440508805	39.655455200411
2	1451	22406.85193842583	24.715690141476
2	1455	22432.201313762845	13.483995634438
2	1459	22516.967703397905	0
2	1462	22684.16879421514	0
2	1465	22867.267151394745	0
2	1468	22926.677392370003	0
2	1470	22941.563371106249	0
2	1474	23018.880402881789	0
2	1476	23024.175115051704	0
2	1480	23179.424628421372	0
2	1482	23192.256928621765	0
2	1486	23281.547662588391	0
2	1489	23386.793372989682	0
2	1492	23455.154334686092	0
2	1495	23529.626649600785	0
2	1497	23545.515098738187	0
2	1501	23600.690886654706	0
2	1504	23649.271993471504	0
2	1505	23651.315245825728	0
2	1510	23690.627935138675	0
2	1512	23713.107274067049	0
2	1516	23786.403554156001	0
2	1518	23793.568689999231	0
2	1522	23819.89098596031	16.993537294328
2	1525	23838.421751820667	0
2	1529	23853.712924276259	4.662618140988
2	1533	23903.639312552051	0
2	1534	23904.497482175556	0
2	1539	24099.661756276555	0
2	1541	24104.100471315998	0
2	1544	24135.263887270042	0
2	1547	24161.327652658638	0
2	1550	24175.621449721034	0
2	1554	24207.965945296278	0
2	1557	24337.732481872269	0
2	1559	24344.670105468028	0
2	1563	24371.538301175432	23.134380247026
2	1567	24430.313089707476	0
2	1569	24433.705625300239	0
2	1573	24463.682129671702	8.545469338694
2	1576	24490.480352509417	0
2	1580	24528.666079930926	0
2	1582	24541.316631086645	0
2	1585	24565.214105795029	0
2	1588	24586.676622319249	0
2	1592	24632.439548622667	0
2	1594	24642.389870522731	0
2	1598	24665.974843124479	1.382952560601
2	1602	24708.948844315841	0
2	1605	24939.858621215495	0
2	1608	25002.368633916807	0
2	1610	25022.826955140114	0
2	1614	25135.877305063465	0
2	1617	25176.730601705742	0
2	1619	25188.335817152619	0
2	1623	25327.883932984321	0
2	1625	25356.558573144096	0
2	1628	25360.805446911079	1.1057781133
2	1633	25397.178336309441	0
2	1636	25491.506004984639	0
2	1637	25493.757202893053	0
2	1642	25525.016099867409	27.651216025327
2	1646	25602.056378386681	0
2	1647	25603.524597167039	0
2	1652	25634.872585121454	17.320171169419
2	1655	25661.724731812047	0
2	1659	25780.234506593483	0
2	1662	25881.680157424852	0
2	1664	25889.54450026922	0
2	1668	25938.106230311937	0
2	1670	25947.208408241131	0
2	1674	25970.678093164836	21.644654249444
2	1677	25990.983731891088	0
2	1681	26003.536928133599	7.410348446335
2	1685	26026.690125460437	2.37485403436
2	1688	26044.046529659969	0
2	1692	26063.066509091342	3.258012051438
2	1695	26090.555121671368	0
2	1699	26216.76909054339	0
2	1702	26280.26760665361	0
2	1704	26306.003028046928	0
2	1707	26325.106264473296	0
2	1712	26342.715092365977	5.988321423522
2	1715	26358.697141853638	16.490688113889
2	1719	26448.139209637121	0
2	1722	26507.535773769383	0
2	1724	26514.748743405236	0
2	1728	26616.014066967946	0
2	1730	26629.41987279682	0
2	1734	26648.470992085404	12.120282893552
2	1738	26687.381073312372	0
2	1740	26714.299750689316	0
2	1744	26769.178077010341	0
2	1747	26817.993101940955	0
2	1750	26852.431720405049	0
2	1752	26884.982151254956	0
2	1755	26899.692689311014	0
2	1759	26922.537598255539	11.167264598695
2	1763	27035.179409414514	0
2	1766	27089.225392602956	0
2	1769	27143.789421086587	0
2	1772	27210.064405295653	0
2	1774	27217.069799896921	0
2	1778	27242.963549419307	20.161061658714
2	1782	27282.828535277794	0
2	1784	27304.913832528888	0
2	1787	27322.428607221811	0
2	1790	27342.873804071237	0
2	1793	27367.874216035415	0
2	1797	27379.203155142871	0.960529717074
2	1801	27422.0383943976	0
2	1803	27452.022516294308	0
2	1806	27480.543861242689	0
2	1810	27546.753729775456	0
2	1812	27553.559260100409	0
2	1816	27726.975977989762	0
2	1818	27754.570059659115	0
2	1820	27760.114030890652	0
2	1825	27854.481833245582	0
2	1828	27889.188271325129	0
2	1831	27941.785206041924	0
2	1834	28020.047706102138	0
2	1835	28021.061927100933	0
2	1840	28150.277811550674	0
2	1843	28206.286340389055	0
2	1846	28252.834255500105	0
2	1848	28256.087455257225	0
2	1852	28285.437580022868	18.969406575248
2	1856	28449.35352905572	0
2	1858	28465.684532032057	0
2	1861	28485.482007742689	0
2	1865	28501.293700328908	7.493370938152
2	1869	28518.320148825124	6.097550765052
2	1873	28537.403366704084	17.970855629424
2	1876	28565.113668899579	0
2	1880	28604.301864361442	0
2	1882	28632.818822191152	0
2	1886	28740.517596693735	0
2	1888	28764.427963896925	0
2	1892	28936.23104355385	0
2	1895	29015.342400696147	0
2	1898	29071.593109510357	0
2	1900	29079.037521575177	0
2	1904	29198.526565442222	0
2	1907	29311.995172192343	0
2	1910	29359.981729319609	0
2	1912	29377.878289744191	0
2	1916	29501.383633176177	0
2	1919	29564.990816923197	0
2	1921	29570.60025204169	0
2	1925	29597.901924363656	13.556706645756
2	1929	29771.953429355614	0
2	1932	29854.492820708815	0
2	1934	29881.039742468458	0
2	1938	30195.400454395618	0
2	1941	30295.70901548037	0
2	1944	30331.61859187657	0
2	1947	30383.012520863999	0
2	1949	30411.139392938403	0
2	1953	30457.740594575973	0
2	1955	30474.517480145095	0
2	1959	30565.789950536061	0
2	1961	30574.237022476121	0
2	1965	30660.928751258912	0
2	1967	30678.741147658707	0
2	1971	30737.797560059183	0
2	1974	30948.980168356479	0
2	1976	30974.855631987227	0
2	1980	31042.143927224065	0
2	1981	31044.719381440358	0
2	1986	31113.048246531096	0
2	1988	31123.420997130961	0
2	1992	31146.432073791663	21.600716673754
2	1995	31172.757876368274	0
2	1999	31179.782395681558	5.516516728972
2	2003	31225.150175673515	0
2	2005	31242.419105021329	0
2	2009	31257.793260140528	8.081026467577
2	2013	31277.828231490082	4.477113607968
2	2016	31291.259389862416	0
2	2020	31346.086735232946	0
2	2022	31350.187282116781	0
2	2027	31379.689191444024	16.578855838228
2	2031	31386.547097505713	8.759451047369
2	2034	31412.788281008724	32.438748156193
2	2037	31423.637762887745	0
2	2041	31473.772316672184	0
2	2044	31542.158283062454	0
2	2047	31686.636239896797	0
2	2050	31858.411018989902	0
2	2052	31878.404404768322	0
2	2055	31891.708805613069	0
2	2059	32029.276559148855	0
2	2061	32040.272137430802	0
2	2064	32071.248919927998	0
2	2067	32082.573746261564	0
2	2070	32105.409883814025	0
2	2074	32151.122270536287	0
2	2077	32191.444913488124	0
2	2080	32310.766318468073	0
2	2083	32347.812356493934	0
2	2085	32356.592959645351	0
2	2089	32437.927600466711	0
2	2092	32560.107653494641	0
2	2094	32572.924030107762	0
2	2098	32591.950940491474	10.560789661438
2	2102	32679.882281980644	0
2	2104	32703.66182993811	0
2	2108	32743.365746516339	0
2	2110	32761.020823920656	0
2	2114	32776.80996291737	15.186860517741
2	2118	32928.754030235357	0
2	2120	32935.618609663132	0
2	2124	33124.322924459496	0
2	2127	33218.046152210129	0
2	2130	33251.169404588201	0
2	2132	33278.540797347228	0
2	2136	33390.115665986483	0
2	2139	33503.663948145945	0
2	2142	33540.268082738544	0
2	2144	33546.803279495506	0
2	2148	33637.933182006296	0
2	2150	33646.937332391797	0
2	2155	33670.295995290025	18.318705940263
2	2159	33681.757294138773	25.769583560661
2	2162	33703.065188132083	30.809892702383
2	2166	33718.168654238724	2.61026126438
2	2170	33757.922246473894	0
2	2173	33828.764600951614	0
2	2176	33940.077536352672	0
2	2179	34051.457543435616	0
2	2181	34065.559289668932	0
2	2185	34084.552752787602	15.134784268977
2	2189	34183.945155167782	0
2	2192	34244.711561028118	0
2	2194	34276.088802794924	0
2	2197	34286.360562422085	0
2	2201	34479.488366362455	0
2	2204	34583.957527807938	0
2	2206	34600.791072533546	0
2	2210	34637.411468386482	0
2	2213	34727.629656943023	0
2	2215	34752.299592929071	0
2	2218	34760.087658090261	0
2	2221	34792.393772248088	0
2	2224	34805.633770112673	0
2	2228	34908.046397148829	0
2	2231	35056.395961809557	0
2	2234	35121.747156560953	0
2	2236	35126.798751890923	0
2	2241	35154.155372820874	13.384250307477
2	2244	35162.874897648793	9.827625629703
[...]
4	393	7248.543655452901	0
4	396	7286.190640900345	0
4	403	7346.229140634692	0
4	407	7357.15441704824	1
4	411	7379.889375449587	0
4	414	7392.918698908867	1
4	417	7412.655758062232	0
4	418	7428.503761000693	1
4	423	7523.365095968982	0
4	424	7532.470334632653	1
4	427	7570.516307191714	0
4	430	7606.893725265352	0
4	435	7670.283724901522	0
4	436	7694.237594874144	1
4	442	7756.021616076732	0
4	446	7778.565061683122	1
4	449	7789.447404635199	0
4	450	7814.099825591234	1
4	453	7849.930728024444	0
4	459	7902.723873331897	0
4	462	7912.945167219724	1
4	463	7935.462421488297	0
4	468	7997.301556474969	0
4	470	8016.011230464412	1
4	474	8046.985687150331	0
4	475	8060.059338250558	1
4	478	8132.98903732116	0
4	481	8191.726670221006	0
4	484	8233.540127892608	0
4	489	8334.260629840488	0
4	490	8346.710722151923	1
4	495	8404.057215581719	0
4	497	8419.189192648825	1
4	501	8452.083124509286	0
4	504	8468.070955907868	1
4	508	8498.188048547493	0
4	509	8503.953079661685	1
4	513	8545.98316313176	0
4	515	8580.083098414274	1
4	521	8665.077354583748	0
4	524	8669.340314556859	1
4	525	8697.465469763753	0
4	530	8753.261373653587	0
4	531	8770.441923364029	1
4	534	8864.859779673884	0
4	537	8915.015295144141	0
4	540	9029.837847264621	0
4	543	9081.3155249986	0
4	548	9181.294047523438	0
4	551	9204.630966670349	1
4	552	9222.48068267873	0
4	558	9273.452219358079	0
4	561	9283.624478884049	1
4	562	9308.067593164667	0
4	565	9359.538874747313	0
4	568	9434.88087121443	0
4	571	9511.907778955405	0
4	574	9609.462668142039	0
4	577	9651.743737536817	0
4	580	9690.975264937391	0
4	583	9761.257996015307	0
4	586	9854.99138188884	0
4	591	9888.891530428702	0
4	593	9904.167698683594	1
4	598	9934.571302186838	0
4	601	9959.420751618704	1
4	602	9967.265288013877	0
4	608	10009.152715001097	0
4	612	10037.108424218754	1
4	614	10042.872895365339	0
4	616	10072.523589453716	1
4	619	10149.896732798811	0
4	622	10190.292795422874	0
4	629	10259.025728571293	0
4	632	10265.003154247263	1
4	638	10291.625866710368	0
4	642	10301.28571048699	1
4	647	10323.993306850263	0
4	652	10337.306955990644	1
4	655	10357.281988035564	0
4	659	10373.287055413107	1
4	663	10389.597548545762	0
4	666	10408.768527410613	1
4	671	10423.129475044417	0
4	675	10444.681894003867	1
4	679	10455.887516266408	0
4	682	10479.694481810708	1
4	686	10488.958905224643	0
4	689	10515.228508692958	1
4	693	10522.97007534955	0
4	696	10551.153435153815	1
4	698	10555.485945140511	0
4	700	10587.127677126669	1
4	706	10645.485730603027	0
4	710	10666.362446052247	1
4	713	10677.870212835883	0
4	714	10702.419788262454	1
4	717	10832.210013289196	0
4	722	10867.769105384467	0
4	725	10897.255180794855	1
4	726	10900.456192350574	0
4	731	11041.607769521557	0
4	732	11064.322739087772	1
4	738	11119.944514416424	0
4	741	11137.958975405873	1
4	742	11153.772837608979	0
4	747	11211.837520241899	0
4	751	11243.070239959538	1
4	752	11244.960829051129	0
4	755	11294.801560810414	0
4	760	11382.816477477594	0
4	763	11409.036734296226	1
4	764	11431.037136503673	0
4	767	11800.528570317983	0
4	770	11903.722721607971	0
4	775	11947.181236529646	0
4	776	11968.451463456494	1
4	779	12009.700482128852	0
4	785	12126.032499151327	0
4	788	12144.355786439478	1
4	789	12159.239859493947	0
4	792	12230.882773193629	0
4	796	12348.589667023167	0
4	803	12382.702919830004	0
4	805	12383.582663990398	1
4	809	12416.554933878758	0
4	811	12418.803936995259	1
4	813	12449.737513654279	0
4	816	12505.128786255229	0
4	819	12672.988614852718	0
4	822	12769.666076742939	0
4	825	13008.809261743828	0
4	830	13133.164304414792	0
4	831	13141.017243567836	1
4	836	13186.419266601304	0
4	837	13204.165160097017	1
4	840	13319.935521259593	0
4	843	13436.668778006877	0
4	846	13558.3959899329	0
4	852	13743.679687144468	0
4	855	13756.010589279469	1
4	856	13776.972432356568	0
4	859	13817.274405476713	0
4	864	13851.689961619574	0
4	867	13870.545380145812	1
4	868	13889.705468207078	0
4	874	13968.761544390665	0
4	877	13972.848078934093	1
4	878	14002.180956636708	0
4	881	14048.124693237782	0
4	887	14198.590480201507	0
4	891	14211.583291603944	1
4	894	14231.590739910916	0
4	895	14247.651316564242	1
4	898	14330.331427575773	0
4	901	14438.334763472524	0
4	904	14611.958222903166	0
4	907	14667.198381149834	0
4	912	14839.233300774025	0
4	915	14867.359834988511	1
4	918	14889.837778464969	0
4	919	14907.111390425626	1
4	925	14955.630098192554	0
4	928	14960.889028232573	1
4	929	14989.033739910088	0
4	934	15031.690434772116	0
4	935	15059.841235876947	1
4	938	15121.100416216332	0
4	944	15228.863720099514	0
4	947	15238.419809039974	1
4	950	15261.834177486769	0
4	951	15276.011443887683	1
4	954	15312.769568983127	0
4	959	15486.533523508582	0
4	960	15492.541798106137	1
4	963	15532.424010068325	0
4	966	15706.124156036426	0
4	969	15745.944255765136	0
4	972	15794.520682261958	0
4	975	15850.774983702541	0
4	978	15966.424848635525	0
4	984	16109.466632162015	0
4	987	16120.096777721782	1
4	990	16142.304191074138	0
4	991	16161.160946865107	1
4	994	16207.24593580339	0
4	997	16280.718338675006	0
4	1001	16413.64753285322	0
4	1005	16448.874356604097	1
4	1006	16476.309909163282	0
4	1009	16532.368618797347	0
4	1012	16586.404900313411	0
4	1015	16639.873910636951	0
4	1018	16713.165942828003	0
4	1021	16802.966335728394	0
4	1026	16852.196980364816	0
4	1028	16857.06989668595	1
4	1030	16888.221400432587	0
4	1033	16984.232426115785	0
4	1036	17021.688859104256	0
4	1041	17092.105898772182	0
4	1042	17114.16547534392	1
4	1047	17160.035433649367	0
4	1048	17187.399501252515	1
4	1053	17276.068467010536	0
4	1054	17304.176485102685	1
4	1059	17385.568545242863	0
4	1060	17390.838346158486	1
4	1065	17552.123396276592	0
4	1066	17559.205317504306	1
4	1069	17603.275369630531	0
4	1072	17650.362453202756	0
4	1075	17773.064923331383	0
4	1080	17873.128430755955	0
4	1081	17880.728575676043	1
4	1086	17936.511535021071	0
4	1087	17944.329088590239	1
4	1092	18021.71578517184	0
4	1093	18027.624345208789	1
4	1096	18066.638673307997	0
4	1099	18133.51048920575	0
4	1102	18188.869132629543	0
4	1105	18362.440877680547	0
4	1108	18405.912396152447	0
4	1114	18446.201645825602	0
4	1117	18472.099684450309	1
4	1118	18479.365183821896	0
4	1124	18580.764356496518	0
4	1127	18589.634596621093	1
4	1128	18613.656481224715	0
4	1133	18686.187912016738	0
4	1134	18702.836105820046	1
4	1141	18780.522786519425	0
4	1144	18785.442063205125	1
4	1148	18812.620034039054	0
4	1152	18821.556422045986	1
4	1155	18846.776972840826	0
4	1156	18858.269720615211	1
4	1159	19020.264219861135	0
4	1162	19058.766786294871	0
4	1165	19136.28832925844	0
4	1171	19317.563137787871	0
4	1174	19337.656315176851	1
4	1175	19350.363636919646	0
4	1178	19473.17075365686	0
4	1183	19563.460400960006	0
4	1184	19587.618740160208	1
4	1189	19663.481639568897	0
4	1190	19670.439674257965	1
4	1195	19790.396754585995	0
4	1196	19820.255509134078	1
4	1199	19853.71157073905	0
4	1202	19898.538015612873	0
4	1205	19951.943465929842	0
4	1210	20007.323742394679	0
4	1212	20017.142588746059	1
4	1217	20049.18934812786	0
4	1221	20057.691374926144	1
4	1227	20082.784441858919	0
4	1230	20093.455326247437	1
4	1234	20115.140220451839	0
4	1237	20129.518445179521	1
4	1241	20148.402826629338	0
4	1244	20165.53006454075	1
4	1245	20181.539013982914	0
4	1249	20262.779430915212	0
4	1253	20297.114009805011	1
4	1256	20315.040334418912	0
4	1259	20340.874184228937	1
4	1260	20356.074628058118	0
4	1265	20413.260922365312	0
4	1266	20428.96012802077	1
4	1271	20542.650513576615	0
4	1272	20571.538811734801	1
4	1275	20656.272264704139	0
4	1278	20736.241507120591	0
4	1281	20801.679653548968	0
4	1286	20949.01760759293	0
4	1287	20966.462703565728	1
4	1293	21009.455520299194	0
4	1296	21014.953959385053	1
4	1297	21042.367118155106	0
4	1302	21090.428573481822	0
4	1305	21107.003753408774	1
4	1306	21130.505827512475	0
4	1311	21221.922403305085	0
4	1314	21241.34218709707	1
4	1315	21258.066666655802	0
4	1321	21313.646367688118	0
4	1324	21319.153604042557	1
4	1325	21346.448770755973	0
4	1329	21430.740135534307	0
4	1333	21463.543041302531	1
4	1336	21472.925389538029	0
4	1339	21501.789105480906	1
4	1340	21520.031462297927	0
4	1343	21559.746583165292	0
4	1346	21604.90280190015	0
4	1351	21658.285642988078	0
4	1352	21670.980265637601	1
4	1355	21771.680215348099	0
4	1359	21818.056207082895	0
4	1365	21848.344754438823	1
4	1368	21874.947080941926	0
4	1371	21884.714836972558	1
4	1372	21907.786777321699	0
4	1378	21985.752409784333	0
4	1382	22012.672022047379	1
4	1385	22018.316558381012	0
4	1389	22048.187658523607	1
4	1390	22050.876297598194	0
4	1393	22119.998102983495	0
4	1396	22174.675133587384	0
4	1403	22208.410916399862	0
4	1406	22215.237607606964	1
4	1411	22241.627221890985	0
4	1414	22250.927904101074	1
4	1419	22274.452432587275	0
4	1422	22287.262782674763	1
4	1427	22307.408494535164	0
4	1431	22322.983433168658	1
4	1436	22340.723039384035	0
4	1440	22358.498116276443	1
4	1443	22374.48171703684	0
4	1447	22396.005440508805	1
4	1450	22406.85193842583	0
4	1454	22432.201313762845	1
4	1457	22439.465845774855	0
4	1458	22467.761129791598	1
4	1461	22550.733514713916	0
4	1464	22718.0058871909	0
4	1467	22899.901711182782	0
4	1472	22959.444653400669	0
4	1473	22977.847699922738	1
4	1478	23052.016750067587	0
4	1479	23059.781875227318	1
4	1484	23212.160548999448	0
4	1485	23227.697861757144	1
4	1488	23314.513761784579	0
4	1491	23420.464047181937	0
4	1494	23488.179300152304	0
4	1499	23562.862999919195	0
4	1500	23581.936246943125	1
4	1503	23633.699087412615	0
4	1508	23683.023258009379	0
4	1509	23687.653921150795	1
4	1514	23724.020568363128	0
4	1515	23749.702141006214	1
4	1521	23819.89098596031	0
4	1524	23829.948726207665	1
4	1528	23853.712924276259	0
4	1531	23875.129482724859	1
4	1532	23887.037019878471	0
4	1537	23936.558313936981	0
4	1538	23939.733529824698	1
4	1543	24132.164416654495	0
4	1546	24138.89886344106	1
4	1549	24168.831382339981	0
4	1552	24196.679767709566	1
4	1553	24207.67202612719	0
4	1556	24241.562136779581	0
4	1562	24371.538301175432	0
4	1565	24380.955743242201	1
4	1566	24404.776230968426	0
4	1572	24463.682129671702	0
4	1575	24469.983122017492	1
4	1578	24496.831723723345	0
4	1579	24526.783272702119	1
4	1584	24561.53125943207	0
4	1587	24577.270057387415	1
4	1590	24598.613689632589	0
4	1591	24622.212165875534	1
4	1597	24665.974843124479	0
4	1600	24678.225425421099	1
4	1601	24699.248754445232	0
4	1604	24741.439925418184	0
4	1607	24972.979633113166	0
4	1612	25036.074946670351	0
4	1613	25058.924148779701	1
4	1616	25168.516666319897	0
4	1621	25210.824738693177	0
4	1622	25224.337279321196	1
4	1627	25360.805446911079	0
4	1631	25392.487167812179	1
4	1632	25393.955940090881	0
4	1635	25430.331204638719	0
4	1641	25525.016099867409	0
4	1644	25529.972477932595	1
4	1645	25557.914810343432	0
4	1651	25634.872585121454	0
4	1654	25638.647073862816	1
4	1657	25667.833736394079	0
4	1658	25698.753356537584	1
4	1661	25813.754875311865	0
4	1666	25914.515107425498	0
4	1667	25925.165206305383	1
4	1673	25970.678093164836	0
4	1676	25984.242928768804	1
4	1680	26003.536928133599	0
4	1684	26026.690125460437	1
4	1687	26036.77442816293	0
4	1691	26063.066509091342	1
4	1694	26077.065367647074	0
4	1697	26099.168298168739	1
4	1698	26123.883991018724	0
4	1701	26248.888735080961	0
4	1706	26313.128962729622	0
4	1711	26342.715092365977	1
4	1714	26358.697141853638	0
4	1717	26378.475647077949	1
4	1718	26391.945061110986	0
4	1721	26481.254766619272	0
4	1726	26540.507212481348	0
4	1727	26551.442696347797	1
4	1733	26648.470992085404	0
4	1736	26665.265115852095	1
4	1737	26681.613094791066	0
4	1742	26720.341629370186	0
4	1743	26750.433588797398	1
4	1746	26802.348498527526	0
4	1749	26850.712547326056	0
4	1753	26885.352281798756	0
4	1758	26922.537598255539	1
4	1761	26932.937478231167	0
4	1762	26958.268662266869	1
4	1765	27068.316861796911	0
4	1768	27122.937315721244	0
4	1771	27177.210973213245	0
4	1777	27242.963549419307	0
4	1780	27253.10243272678	1
4	1781	27275.778081478284	0
4	1786	27314.757193491114	0
4	1789	27340.440575852218	1
4	1792	27354.717042128777	0
4	1796	27379.203155142871	1
4	1799	27400.101112823918	0
4	1800	27414.944078474702	1
4	1804	27454.880755988334	0
4	1808	27488.067344977587	1
4	1809	27513.557869557285	0
4	1814	27580.605055190664	0
4	1815	27590.070094640609	1
4	1819	27759.193672903877	0
4	1823	27790.838194180123	1
4	1824	27793.697238055313	0
4	1827	27886.954699520368	0
4	1830	27922.119313029646	0
4	1833	27974.531800367829	0
4	1838	28052.953648618878	0
4	1839	28057.167829950981	1
4	1842	28183.417340931289	0
4	1845	28239.728802860277	0
4	1851	28285.437580022868	0
4	1854	28291.09828398745	1
4	1855	28319.284199180702	0
4	1860	28482.260447110755	0
4	1864	28501.293700328908	1
4	1868	28518.320148825124	0
4	1872	28537.403366704084	1
4	1875	28551.162129460782	0
4	1878	28572.648267018043	1
4	1879	28598.245926110934	0
4	1883	28637.250696552949	0
4	1885	28668.936150453118	1
4	1890	28774.320143491099	0
4	1891	28799.978246582835	1
4	1894	28969.959292286633	0
4	1897	29049.123468978542	0
4	1902	29104.718822030626	0
4	1903	29114.953812205652	1
4	1906	29231.330945682492	0
4	1909	29345.03193290797	0
4	1914	29393.634128812875	0
4	1915	29413.961026376119	1
4	1918	29533.616032157848	0
4	1924	29597.901924363656	0
4	1927	29606.725733976857	1
4	1928	29631.015076404815	0
4	1931	29804.612775741845	0
4	1935	29886.857032086629	0
4	1937	29917.703691662527	1
4	1940	30228.187636770856	0
4	1943	30327.539307259689	0
4	1946	30365.071853416492	0
4	1950	30416.902534700655	0
4	1952	30447.338764917823	1
4	1957	30490.305840300542	0
4	1958	30510.006869029707	1
4	1963	30599.155165301034	0
4	1964	30610.158465090718	1
4	1969	30693.049514317899	0
4	1970	30714.738019519542	1
4	1973	30770.740290817497	0
4	1978	30981.714921119736	0
4	1979	31010.285043317681	1
4	1984	31074.730324679787	0
4	1985	31080.241206109595	1
4	1991	31146.432073791663	0
4	1994	31159.560504017634	1
4	1998	31179.782395681558	0
4	2001	31209.603820067645	1
4	2002	31212.996083287774	0
4	2008	31257.793260140528	0
4	2012	31277.828231490082	1
4	2015	31290.67127754831	0
4	2018	31313.082778908521	1
4	2019	31324.136571892505	0
4	2026	31379.689191444024	0
4	2030	31386.547097505713	1
4	2033	31412.788281008724	0
4	2036	31422.700501399358	1
4	2039	31445.038119748591	0
4	2040	31459.991340260388	1
4	2043	31507.690216500633	0
4	2046	31575.435806229829	0
4	2049	31720.172222297708	0
4	2054	31891.607991007233	0
4	2057	31914.885467343026	1
4	2058	31924.627311834999	0
4	2063	32061.959789196592	0
4	2066	32076.936693502063	1
4	2069	32103.515056358393	0
4	2072	32118.796136043261	1
4	2073	32138.090251810761	0
4	2076	32184.167636426385	0
4	2079	32224.256046782357	0
4	2082	32343.404884415361	0
4	2087	32380.835550419046	0
4	2088	32392.427815643431	1
4	2091	32471.242583690936	0
4	2097	32591.950940491474	0
4	2100	32609.803447408364	1
4	2101	32624.453633796271	0
4	2106	32713.432252528439	0
4	2107	32739.827457265959	1
4	2113	32776.80996291737	0
4	2116	32797.492814838497	1
4	2117	32809.918240084467	0
4	2122	32962.011212866145	0
4	2123	32972.241300986493	1
4	2126	33157.337077739507	0
4	2129	33250.312836306464	0
4	2133	33282.529466053557	0
4	2135	33315.201642301163	1
4	2138	33424.058669561464	0
4	2141	33536.70587923247	0
4	2146	33572.838398707231	0
4	2147	33582.114509680499	1
4	2154	33670.295995290025	0
4	2158	33681.757294138773	1
4	2161	33703.065188132083	0
4	2165	33718.168654238724	1
4	2168	33737.026314637713	0
4	2169	33753.971125524455	1
4	2172	33790.898167084952	0
4	2175	33861.761107816366	0
4	2178	33973.339063227363	0
4	2184	34084.552752787602	0
4	2187	34102.205564030674	1
4	2188	34117.422200778929	0
4	2191	34217.300274023361	0
4	2195	34277.624468297212	0
4	2199	34312.869236193427	1
4	2200	34319.192139703876	0
4	2203	34512.871310249449	0
4	2208	34616.614886783092	0
4	2209	34636.527047882968	1
4	2212	34670.679061057872	0
4	2217	34759.927236903769	0
4	2220	34788.279276577443	1
4	2222	34793.364561310924	0
4	2226	34828.236752656379	1
4	2227	34838.577839717196	0
4	2230	34940.606531847272	0
4	2233	35089.300558978825	0
4	2240	35154.155372820874	0
4	2243	35162.874897648793	1
4	2246	35187.183855317165	0
4	2247	35199.385512323388	1
4	2253	35300.731718160913	0
4	2256	35307.55406226186	1
4	2257	35333.365871116823	0
4	2260	35468.322213798687	0
4	2265	35552.175860996237	0
4	2267	35567.714847109252	1
4	2269	35597.862926179251	0
4	2272	35701.200138086942	0
4	2275	35745.294267583171	0
4	2282	35828.799934941542	0
4	2285	35835.818220805912	1
4	2288	35862.702962743391	0
4	2289	35872.243434711013	1
4	2292	35926.749561372901	0
4	2295	36086.152882186662	0
4	2300	36167.052100297562	0
4	2301	36183.741617583187	1
4	2304	36259.325957371094	0
4	2307	36330.716450489365	0
4	2310	36391.785914772758	0
4	2313	36430.360772409469	0
4	2316	36483.099454052027	0
4	2319	36536.653051294186	0
4	2322	36615.21364606496	0
4	2327	36691.281521920898	0
4	2328	36697.040054616247	1
4	2331	36741.142558162705	0
4	2334	36778.75853686232	0
4	2339	36837.591466056762	0
4	2342	36854.029934819229	1
4	2343	36876.255519594308	0
4	2346	36976.234220697449	0
4	2349	37052.192186100313	0
4	2352	37109.820596139911	0
4	2355	37242.252366180644	0
4	2358	37328.523466993425	0
4	2364	37428.063586727492	0
4	2368	37448.255888292433	1
4	2371	37461.384586981346	0
4	2374	37484.307859509821	1
4	2375	37499.315167780418	0
4	2378	37578.9653275623	0
4	2381	37628.650438100443	0
4	2385	37730.491695501735	0
4	2388	37764.389615761419	1
4	2390	37794.78462515432	0
4	2395	37906.089518485034	0
4	2396	37925.597621041998	1
4	2399	38077.78680736734	0
4	2402	38150.778785418188	0
4	2408	38368.773010346857	0
4	2411	38379.356598481569	1
4	2413	38401.219194275396	0
4	2415	38435.048897825927	1
4	2418	38541.642815855505	0
4	2421	38617.189806937928	0
4	2424	38666.087016504227	0
4	2427	38821.062985701514	0
4	2432	38861.600163513509	0
4	2433	38888.230947801075	1
4	2436	38985.077418698042	0
4	2442	39042.602091670761	0
4	2445	39057.663490196535	1
4	2449	39075.941656609398	0
4	2453	39102.932200601744	1
4	2456	39109.064062551998	0
4	2457	39138.33401232926	1
4	2460	39317.489818721772	0
4	2464	39356.751412609153	0
4	2466	39392.912562444426	1
4	2470	39444.427557736131	0
4	2474	39480.055037980932	1
4	2475	39484.180825694353	0
4	2478	39538.314222766563	0
4	2483	39654.813301416003	0
4	2484	39665.331687387899	1
4	2488	39833.708349554231	0
4	2492	39867.248191277177	1
4	2493	39883.180430888672	0
4	2498	39966.117613686588	0
4	2499	39980.724238326834	1
4	2502	40056.67110210929	0
4	2506	40247.189768209212	0
4	2508	40279.707502772901	1
4	2513	40315.301607020095	0
4	2514	40320.543115405852	1
4	2517	40392.425423779765	0
4	2522	40433.731675797504	0
4	2526	40458.954888070544	1
4	2529	40467.505880609731	0
4	2532	40495.159955644717	1
4	2535	40509.167987728138	0
4	2540	40532.571188783895	1
4	2544	40548.530571788284	0
4	2547	40568.43673728595	1
4	2551	40582.298840963894	0
4	2555	40604.03858275049	1
4	2558	40615.466823096106	0
4	2562	40640.186679473375	1
4	2565	40665.933862901859	0
4	2566	40677.177231855371	1
4	2571	40794.896144850549	0
4	2572	40819.955845237318	1
4	2575	40985.759431820882	0
4	2578	41080.317372538865	0
4	2581	41129.419954318708	0
4	2586	41224.407931197188	0
4	2587	41240.549989655516	1
4	2590	41355.159903859154	0
4	2597	41405.984718708508	0
4	2601	41430.916607955369	1
4	2605	41438.396935157988	0
4	2608	41467.380569784953	1
4	2611	41471.913588579519	0
4	2617	41503.430685858908	1
4	2619	41504.55911776751	0
4	2624	41537.816288328148	0
4	2626	41539.905600917782	1
4	2628	41570.103875871925	0
4	2631	41698.256986890494	0
4	2634	41781.398006877133	0
4	2639	41897.27309347783	0
4	2640	41919.643578923123	1
4	2645	41965.883529391749	0
4	2646	41972.653268598666	1
4	2649	42008.758968440103	0
4	2654	42198.948992777691	0
4	2656	42213.423164400441	1
4	2658	42244.183933395345	0
4	2661	42292.582781414797	0
4	2666	42391.28907485809	0
4	2667	42416.299494721473	1
4	2673	42472.71797614015	0
4	2676	42479.06698749309	1
4	2677	42505.298572259054	0
4	2683	42633.097814738948	0
4	2687	42640.100762002612	1
4	2690	42665.631838049005	0
4	2691	42676.041490588213	1
4	2694	42767.309719591122	0
4	2699	42817.960482141884	0
4	2700	42824.061323887975	1
4	2703	42923.881456738967	0
4	2706	42961.009437557515	0
4	2711	43003.111432981737	0
4	2712	43025.127686026385	1

