<<<<<<< HEAD
file 25042878 1513247249                                        
version 2
run General-0-20171214-11:27:22-3760
attr configname General
attr datetime 20171214-11:27:22
=======
file 5707834 1513247210                                         
version 2
run General-0-20171214-11:24:45-7344
attr configname General
attr datetime 20171214-11:24:45
>>>>>>> 6b0e739628c3a8f722133ff309e3245a8d98b87d
attr experiment General
attr inifile carrefour.ini
attr iterationvars ""
attr iterationvarsf ""
attr measurement ""
attr network Carrefour
<<<<<<< HEAD
attr processid 3760
=======
attr processid 7344
>>>>>>> 6b0e739628c3a8f722133ff309e3245a8d98b87d
attr repetition 0
attr replication #0
attr resultdir results
attr runnumber 0
attr seedset 0
param **.lambda 1
param **.numeroCasse 2
param **.mu 100
param **.tipoSimulazione 1

vector 0 Carrefour.coda InterrivalStat:vector ETV
attr source Interarrivals
attr title "InterArrivals, vector"
vector 1 Carrefour.coda QueueLenghtStat:vector ETV
attr source QueueLenght
attr title "Queue Lenght, vector"
vector 2 Carrefour.coda QueuingStat:vector ETV
attr source Queuing
attr title "Time in Queue, vector"
<<<<<<< HEAD
vector 3 Carrefour.casse[8] TotalTimeStat:vector ETV
attr source TotalTime
attr title "Total Time, vector"
vector 4 Carrefour.casse[8] ActiveTillStat:vector ETV
attr source ActiveTill
attr title "Active Tills, vector"
vector 5 Carrefour.casse[9] TotalTimeStat:vector ETV
attr source TotalTime
attr title "Total Time, vector"
vector 6 Carrefour.casse[9] ActiveTillStat:vector ETV
attr source ActiveTill
attr title "Active Tills, vector"
vector 7 Carrefour.casse[4] TotalTimeStat:vector ETV
attr source TotalTime
attr title "Total Time, vector"
vector 8 Carrefour.casse[4] ActiveTillStat:vector ETV
attr source ActiveTill
attr title "Active Tills, vector"
vector 9 Carrefour.casse[11] TotalTimeStat:vector ETV
attr source TotalTime
attr title "Total Time, vector"
vector 10 Carrefour.casse[11] ActiveTillStat:vector ETV
attr source ActiveTill
attr title "Active Tills, vector"
vector 11 Carrefour.casse[0] TotalTimeStat:vector ETV
attr source TotalTime
attr title "Total Time, vector"
vector 12 Carrefour.casse[0] ActiveTillStat:vector ETV
attr source ActiveTill
attr title "Active Tills, vector"
vector 13 Carrefour.casse[10] TotalTimeStat:vector ETV
attr source TotalTime
attr title "Total Time, vector"
vector 14 Carrefour.casse[10] ActiveTillStat:vector ETV
attr source ActiveTill
attr title "Active Tills, vector"
vector 15 Carrefour.casse[15] TotalTimeStat:vector ETV
attr source TotalTime
attr title "Total Time, vector"
vector 16 Carrefour.casse[15] ActiveTillStat:vector ETV
attr source ActiveTill
attr title "Active Tills, vector"
vector 17 Carrefour.casse[2] TotalTimeStat:vector ETV
attr source TotalTime
attr title "Total Time, vector"
vector 18 Carrefour.casse[2] ActiveTillStat:vector ETV
attr source ActiveTill
attr title "Active Tills, vector"
vector 19 Carrefour.casse[1] TotalTimeStat:vector ETV
attr source TotalTime
attr title "Total Time, vector"
vector 20 Carrefour.casse[1] ActiveTillStat:vector ETV
attr source ActiveTill
attr title "Active Tills, vector"
vector 21 Carrefour.casse[13] TotalTimeStat:vector ETV
attr source TotalTime
attr title "Total Time, vector"
vector 22 Carrefour.casse[13] ActiveTillStat:vector ETV
attr source ActiveTill
attr title "Active Tills, vector"
vector 23 Carrefour.casse[5] TotalTimeStat:vector ETV
attr source TotalTime
attr title "Total Time, vector"
vector 24 Carrefour.casse[5] ActiveTillStat:vector ETV
attr source ActiveTill
attr title "Active Tills, vector"
vector 25 Carrefour.casse[17] TotalTimeStat:vector ETV
attr source TotalTime
attr title "Total Time, vector"
vector 26 Carrefour.casse[17] ActiveTillStat:vector ETV
attr source ActiveTill
attr title "Active Tills, vector"
vector 27 Carrefour.casse[7] TotalTimeStat:vector ETV
attr source TotalTime
attr title "Total Time, vector"
vector 28 Carrefour.casse[7] ActiveTillStat:vector ETV
attr source ActiveTill
attr title "Active Tills, vector"
vector 29 Carrefour.casse[12] TotalTimeStat:vector ETV
attr source TotalTime
attr title "Total Time, vector"
vector 30 Carrefour.casse[12] ActiveTillStat:vector ETV
attr source ActiveTill
attr title "Active Tills, vector"
vector 31 Carrefour.casse[14] TotalTimeStat:vector ETV
attr source TotalTime
attr title "Total Time, vector"
vector 32 Carrefour.casse[14] ActiveTillStat:vector ETV
attr source ActiveTill
attr title "Active Tills, vector"
vector 33 Carrefour.casse[18] TotalTimeStat:vector ETV
attr source TotalTime
attr title "Total Time, vector"
vector 34 Carrefour.casse[18] ActiveTillStat:vector ETV
attr source ActiveTill
attr title "Active Tills, vector"
vector 35 Carrefour.casse[20] TotalTimeStat:vector ETV
attr source TotalTime
attr title "Total Time, vector"
vector 36 Carrefour.casse[20] ActiveTillStat:vector ETV
attr source ActiveTill
attr title "Active Tills, vector"
vector 37 Carrefour.casse[16] TotalTimeStat:vector ETV
attr source TotalTime
attr title "Total Time, vector"
vector 38 Carrefour.casse[16] ActiveTillStat:vector ETV
attr source ActiveTill
attr title "Active Tills, vector"
vector 39 Carrefour.casse[6] TotalTimeStat:vector ETV
attr source TotalTime
attr title "Total Time, vector"
vector 40 Carrefour.casse[6] ActiveTillStat:vector ETV
attr source ActiveTill
attr title "Active Tills, vector"
vector 41 Carrefour.casse[19] TotalTimeStat:vector ETV
attr source TotalTime
attr title "Total Time, vector"
vector 42 Carrefour.casse[19] ActiveTillStat:vector ETV
attr source ActiveTill
attr title "Active Tills, vector"
vector 43 Carrefour.casse[3] TotalTimeStat:vector ETV
attr source TotalTime
attr title "Total Time, vector"
vector 44 Carrefour.casse[3] ActiveTillStat:vector ETV
attr source ActiveTill
attr title "Active Tills, vector"
vector 45 Carrefour.casse[22] TotalTimeStat:vector ETV
attr source TotalTime
attr title "Total Time, vector"
vector 46 Carrefour.casse[22] ActiveTillStat:vector ETV
attr source ActiveTill
attr title "Active Tills, vector"
vector 47 Carrefour.casse[21] TotalTimeStat:vector ETV
attr source TotalTime
attr title "Total Time, vector"
vector 48 Carrefour.casse[21] ActiveTillStat:vector ETV
attr source ActiveTill
attr title "Active Tills, vector"
vector 49 Carrefour.casse[23] TotalTimeStat:vector ETV
attr source TotalTime
attr title "Total Time, vector"
vector 50 Carrefour.casse[23] ActiveTillStat:vector ETV
attr source ActiveTill
attr title "Active Tills, vector"
vector 51 Carrefour.casse[25] TotalTimeStat:vector ETV
attr source TotalTime
attr title "Total Time, vector"
vector 52 Carrefour.casse[25] ActiveTillStat:vector ETV
attr source ActiveTill
attr title "Active Tills, vector"
vector 53 Carrefour.casse[27] TotalTimeStat:vector ETV
attr source TotalTime
attr title "Total Time, vector"
vector 54 Carrefour.casse[27] ActiveTillStat:vector ETV
attr source ActiveTill
attr title "Active Tills, vector"
vector 55 Carrefour.casse[26] TotalTimeStat:vector ETV
attr source TotalTime
attr title "Total Time, vector"
vector 56 Carrefour.casse[26] ActiveTillStat:vector ETV
attr source ActiveTill
attr title "Active Tills, vector"
vector 57 Carrefour.casse[24] TotalTimeStat:vector ETV
attr source TotalTime
attr title "Total Time, vector"
vector 58 Carrefour.casse[24] ActiveTillStat:vector ETV
attr source ActiveTill
attr title "Active Tills, vector"
vector 59 Carrefour.casse[28] TotalTimeStat:vector ETV
attr source TotalTime
attr title "Total Time, vector"
vector 60 Carrefour.casse[28] ActiveTillStat:vector ETV
attr source ActiveTill
attr title "Active Tills, vector"
vector 61 Carrefour.casse[29] TotalTimeStat:vector ETV
attr source TotalTime
attr title "Total Time, vector"
vector 62 Carrefour.casse[29] ActiveTillStat:vector ETV
attr source ActiveTill
attr title "Active Tills, vector"
0	7607 1445874 1 98723 7 687577.962835216676 32768 4.5198065e-005 326.68953555249 687577.96283522 29013440.254733
1	1453481 1003208 1 98723 7 687577.962835216676 32768 0 9 672 2538
2	2456689 1009099 1 98723 7 687577.962835216676 32768 0 121.99213303032 14145.26504284 804453.44700211
0	3465788 1505157 98725 197537 687602.00221658417 1377657.287552132004 32768 0.000251040199 219.47144252456 690079.32471691 29190140.092151
1	4970945 1062402 98725 197537 687602.00221658417 1377657.287552132004 32768 0 9 902 3502
2	6033347 1069364 98725 197537 687602.00221658417 1377657.287552132004 32768 0 188.16168673375 18717.992481906 1303503.4802896
0	7102711 1520360 197539 296366 1377669.85390410196 2070024.427877892604 32768 0.000501794915 221.24555146389 692367.14032576 29688754.17766
1	8623071 1077774 197539 296366 1377669.85390410196 2070024.427877892604 32768 0 13 1353 9293
2	9700845 1084924 197539 296366 1377669.85390410196 2070024.427877892604 32768 0 323.93171263891 28522.946208941 3708171.8209477
0	10785769 1520346 296372 395032 2070086.160569194489 2762107.195072330325 32768 0.000470477304 218.61616229587 692082.76719444 28996890.189454
1	12306115 1077583 296372 395032 2070086.160569194489 2762107.195072330325 32768 0 8 409 1221
2	13383698 1082507 296372 395032 2070086.160569194489 2762107.195072330325 32768 0 103.30240181267 9394.0432452043 423666.21882429
0	14466205 7616 395034 395519 2762108.039615588621 2765636.657685861503 164 0.169079060728 135.38449717032 3529.4626135312 148736.77321645
1	14473821 5397 395034 395519 2762108.039615588621 2765636.657685861503 164 0 0 0 0
2	14479218 5397 395034 395519 2762108.039615588621 2765636.657685861503 164 0 0 0 0
3	14484615 282148 25 395466 250.572636829161 2765304.915874872803 6126 0.012992905991 3641.3944143915 2453747.0008013 1969648518.0805
4	14766763 197216 25 395466 250.572636829161 2765304.915874872803 6126 8 8 49008 392064
5	14963979 279724 30 395476 290.314720929474 2765367.477276349572 6076 0.069533557573 4351.8517730418 2412295.6012038 1969089921.629
6	15243703 195521 30 395476 290.314720929474 2765367.477276349572 6076 9 9 54684 492156
7	15439224 297412 31 395507 303.77206932764 2765560.894083936381 6454 0.040356615439 3966.136180287 2567835.912215 2078523920.7672
8	15736636 207939 31 395507 303.77206932764 2765560.894083936381 6454 4 4 25816 103264
9	15944575 269422 34 395474 312.444100027852 2765350.384111205041 5849 0.117406993454 3652.1114350238 2324551.7450109 1838088187.3797
10	16213997 199994 34 395474 312.444100027852 2765350.384111205041 5849 11 11 64339 707729
11	16413991 307254 52 395485 363.297198230703 2765458.219293411 6529 0.101115295357 3747.7799841779 2631395.8593005 2139667793.7843
12	16721245 216717 52 395485 363.297198230703 2765458.219293411 6529 0 0 0 0
13	16937962 280879 53 395508 421.972786743145 2765571.98234300927 5967 0.036041199596 3365.5243400246 2370551.8033465 1911454509.0039
14	17218841 204138 53 395508 421.972786743145 2765571.98234300927 5967 10 10 59670 596700
15	17422979 239825 54 395344 429.664499923511 2764399.808817469215 5096 0.04758959599 3974.9712226423 2026162.5739164 1611900761.824
16	17662804 174246 54 395344 429.664499923511 2764399.808817469215 5096 15 15 76440 1146600
17	17837050 307281 65 395438 507.868239225078 2765105.604757623823 6528 0.013398789759 3309.9774444719 2602519.0260371 2064645164.114
18	18144331 216757 65 395438 507.868239225078 2765105.604757623823 6528 2 2 13056 26112
19	18361088 304828 70 395370 542.798615781939 2764571.330423947194 6476 0.023635988874 3254.8880713956 2615769.1173664 2081935550.7972
20	18665916 215023 70 395370 542.798615781939 2764571.330423947194 6476 1 1 6476 6476
21	18880939 259556 73 395511 565.549647563938 2765596.908843595556 5513 0.012588978474 3403.9512925294 2175635.1181598 1728874858.8131
22	19140495 188643 73 395511 565.549647563938 2765596.908843595556 5513 13 13 71669 931697
23	19329138 297785 74 395367 573.006879626658 2764562.425946022346 6326 0.012521641739 6205.5011941956 2540307.6350635 2096015400.301
24	19626923 210016 74 395367 573.006879626658 2764562.425946022346 6326 5 5 31630 158150
25	19836939 207947 75 395484 580.88372366516 2765449.132027467605 4418 0.078506461952 3991.8518295644 1783557.3871841 1471733825.9512
26	20044886 151109 75 395484 580.88372366516 2765449.132027467605 4418 17 17 75106 1276802
27	20195995 295081 84 395491 667.635615431645 2765478.326709589416 6270 0.015404651406 3310.9434747237 2484514.6921923 1991387731.4251
28	20491076 208134 84 395491 667.635615431645 2765478.326709589416 6270 7 7 43890 307230
29	20699210 264725 87 395490 727.784037501851 2765474.501882894122 5621 0.187344290528 3461.9698848399 2252002.8576264 1802677649.9626
30	20963935 192433 87 395490 727.784037501851 2765474.501882894122 5621 12 12 67452 809424
31	21156368 245809 92 395422 771.487749454054 2764957.92851410798 5220 0.004986518411 4002.0042951045 2097278.8000848 1681138659.3989
32	21402177 178653 92 395422 771.487749454054 2764957.92851410798 5220 14 14 73080 1023120
33	21580830 195336 108 395479 894.773890250162 2765395.785639067799 4149 0.002608177373 3544.3008274292 1655775.0693769 1333315256.6783
34	21776166 141971 108 395479 894.773890250162 2765395.785639067799 4149 18 18 74682 1344276
35	21918137 158880 109 395480 902.698351302391 2765406.206598589355 3376 0.030637588183 2597.9786202447 1360385.3849701 1089739256.0193
36	22077017 115438 109 395480 902.698351302391 2765406.206598589355 3376 20 20 67520 1350400
37	22192455 223264 134 395494 1079.757394237118 2765495.314102476647 4744 0.128069530968 4035.1895270908 1913522.8221127 1533295603.0533
38	22415719 162254 134 395494 1079.757394237118 2765495.314102476647 4744 16 16 75904 1214464
39	22577973 301378 161 395481 1319.416657365728 2765410.794823022683 6403 0.086175246653 3627.5858297298 2511104.8746757 1964904843.3625
40	22879351 212627 161 395481 1319.416657365728 2765410.794823022683 6403 6 6 38418 230508
41	23091978 177087 174 395475 1464.204269956138 2765352.054596815343 3764 0.288737723318 3016.6153532235 1504013.878542 1180664269.5973
42	23269065 128686 174 395475 1464.204269956138 2765352.054596815343 3764 19 19 71516 1358804
43	23397751 302787 201 395512 1666.45897505362 2765606.800343077634 6430 0.225145577375 3560.5268044029 2585845.817111 2091603624.957
44	23700538 213620 201 395512 1666.45897505362 2765606.800343077634 6430 3 3 19290 57870
45	23914158 122052 346 395274 2765.191559630601 2763834.297421902471 2592 0.017959096362 3179.8974071107 1031560.5068198 805238207.50877
46	24036210 88729 346 395274 2765.191559630601 2763834.297421902471 2592 22 22 57024 1254528
47	24124939 139640 358 395467 2809.747389639984 2765322.896320468096 2965 0.05514750416 3439.0962169243 1186350.1231384 919120693.52023
48	24264579 101482 358 395467 2809.747389639984 2765322.896320468096 2965 21 21 62265 1307565
49	24366061 103025 376 395295 2963.810586327903 2764102.930853076122 2188 0.134211940437 3373.4344814398 857634.02005105 680250382.45268
50	24469086 74881 376 395295 2963.810586327903 2764102.930853076122 2188 23 23 50324 1157452
51	24543967 66523 591 393602 4586.692278270913 2751614.569033366671 1413 0.237476618313 2535.382362595 563373.52560715 425190397.77295
52	24610490 48340 591 393602 4586.692278270913 2751614.569033366671 1413 25 25 35325 883125
53	24658830 39407 606 393649 4659.056547459282 2752120.138760202708 837 1.170941601099 3346.0944882554 315210.61960597 245108384.5874
54	24698237 28649 606 393649 4659.056547459282 2752120.138760202708 837 27 27 22599 610173
55	24726886 50828 677 393671 5051.129795483083 2752310.865778411094 1079 0.500564614609 3441.7217937314 432595.33738326 339005578.27022
56	24777714 36927 677 393671 5051.129795483083 2752310.865778411094 1079 26 26 28054 729404
57	24814641 82781 693 394834 5191.742566260916 2760714.149502459372 1759 0.108800070848 3212.5413144767 716935.16131063 602965392.654
58	24897422 60175 693 394834 5191.742566260916 2760714.149502459372 1759 24 24 42216 1013184
59	24957597 27778 2023 393673 14423.049856118069 2752313.199418021344 589 0.141750709653 3254.9224661631 260899.37708192 229222502.50643
60	24985375 20183 2023 393673 14423.049856118069 2752313.199418021344 589 28 28 16492 461776
61	25005558 21604 2024 393613 14438.291334585979 2751757.677287314284 459 0.773016556916 2655.5241049264 178011.45311966 130572988.06839
62	25027162 15714 2024 393613 14438.291334585979 2751757.677287314284 459 29 29 13311 386019
=======
0	792 1385279 1 66198 7 32886.566482166559 32768 3.6189522e-005 10.6580617308 32886.566482166 66209.669264027
1	1386071 962890 1 66198 7 32886.566482166559 32768 0 0 0 0
2	2348961 962890 1 66198 7 32886.566482166559 32768 0 0 0 0
0	3311851 997606 66200 112995 32889.786067316091 56154.011277850039 23169 3.3866722e-005 8.844053097366 23267.444795684 46645.299811422
1	4309457 698976 66200 112995 32889.786067316091 56154.011277850039 23169 0 0 0 0
2	5008433 698976 66200 112995 32889.786067316091 56154.011277850039 23169 0 0 0 0
0	5707409 44 112997 112997 56154.833326458573 56154.833326458573 1 0.822048608534 0.822048608534 0.822048608534 0.67576391479269
1	5707453 31 112997 112997 56154.833326458573 56154.833326458573 1 0 0 0 0
2	5707484 31 112997 112997 56154.833326458573 56154.833326458573 1 0 0 0 0
0	5707515 43 112999 112999 56157.978161885913 56157.978161885913 1 3.14483542734 3.14483542734 3.14483542734 9.8899898650528
1	5707558 31 112999 112999 56157.978161885913 56157.978161885913 1 0 0 0 0
2	5707589 31 112999 112999 56157.978161885913 56157.978161885913 1 0 0 0 0
0	5707620 44 113001 113001 56158.794785691164 56158.794785691164 1 0.816623805251 0.816623805251 0.816623805251 0.66687443930262
1	5707664 31 113001 113001 56158.794785691164 56158.794785691164 1 0 0 0 0
2	5707695 31 113001 113001 56158.794785691164 56158.794785691164 1 0 0 0 0
0	5707726 44 113003 113003 56159.015790120151 56159.015790120151 1 0.221004428987 0.221004428987 0.221004428987 0.04884295763187
1	5707770 31 113003 113003 56159.015790120151 56159.015790120151 1 0 0 0 0
2	5707801 31 113003 113003 56159.015790120151 56159.015790120151 1 0 0 0 0
>>>>>>> 6b0e739628c3a8f722133ff309e3245a8d98b87d

