file 16768222 1513324408                                        
version 2
run General-0-20171215-08:53:15-9596
attr configname General
attr datetime 20171215-08:53:15
attr experiment General
attr inifile carrefour.ini
attr iterationvars ""
attr iterationvarsf ""
attr measurement ""
attr network Carrefour
attr processid 9596
attr repetition 0
attr replication #0
attr resultdir results
attr runnumber 0
attr seedset 0
param **.lambda 101
param **.numeroCasse 2
param **.mu 180
param **.tipoSimulazione 0
param **.delay 150
param **.ServiceType 0

vector 0 Carrefour.coda 1_MU:vector ETV
attr source Interarrivals
attr title "1/mu, vector"
vector 1 Carrefour.coda E_Nq:vector ETV
attr source QueueLenght
attr title "E[Nq], vector"
vector 2 Carrefour.coda E_W:vector ETV
attr source Queuing
attr title "E[W], vector"
vector 3 Carrefour.decisore E_R:vector ETV
attr source TotalTime
attr title "E[R], vector"
vector 4 Carrefour.decisore ActiveTillStat:vector ETV
attr source ActiveTill
attr title "Active Till, vector"
0	991 1487782 1 117173 7 3334474.067193539588 32768 0.000391610959 1098.564581145 3334474.0671936 679973032.57157
1	1488773 1132961 1 136188 7 3868158.963360042516 32768 0 5159 86116193 304422131259
2	2621734 1496056 1 136188 7 3868158.963360042516 32768 0 533972.02422955 8760368423.9884 3.1513662848719e+015
3	4117790 1496758 5 136210 201.010039210196 3868620.850550496478 32768 152.15956086669 536201.24386972 8782385432.5607 3.163151045903e+015
4	5614548 1041659 5 136210 201.010039210196 3868620.850550496478 32768 0 1 15636 15636
0	6656207 1529742 117176 234436 3334565.437321070094 6656981.097269383541 32768 0.005747989164 1114.9192562193 3322507.0300758 674054490.47706
1	8185949 1180229 136189 272739 3868187.161379211043 7737958.531870094171 32768 5154 10645 262880772 2188056652294
2	9366178 1532717 136189 272739 3868187.161379211043 7737958.531870094171 32768 533509.83511473 1080977.4346007 26595508622.289 2.2383047055772e+016
3	10898895 1532802 136215 272761 3869008.4257059244 7738722.658392438668 32768 534358.7313404 1081655.2189001 26617331438.685 2.2418443841692e+016
4	12431697 1077661 136215 272761 3869008.4257059244 7738722.658392438668 32768 0 1 15481 15481
0	13509358 498183 234440 272888 6657132.060835503367 7742018.373238860319 10671 0.008264199855 938.62656193751 1085037.2759695 221264507.55637
1	14007541 1401 272755 272893 7738489.660191471625 7742151.189084357616 38 10633 10641 404195 4299305337
2	14008942 1775 272755 272893 7738489.660191471625 7742151.189084357616 38 1080373.9985471 1081498.7319338 41083527.116814 44417271141776
3	14010717 1589 272766 272892 7738767.19304284162 7742151.189084357616 34 1080699.819848 1082402.0994695 36777654.708276 39782236962406
4	14012306 1116 272766 272892 7738767.19304284162 7742151.189084357616 34 0 1 16 16
0	14013422 685408 272899 325572 7742496.966524829585 9223168.079203819759 14678 0.004713306748 1024.6041384501 1481149.705965 300027252.55903
1	14698830 467460 272898 325572 7742477.501393205761 9223168.079203819759 12670 10627 12643 147120719 1712747371681
2	15166290 592770 272898 325572 7742477.501393205761 9223168.079203819759 12670 1081393.9347446 1270731.6796395 14934000446.022 1.7642731069529e+016
3	15759060 592549 272897 325567 7742477.501393205761 9223004.794921915832 12667 1081670.7353592 1271102.0673397 14937907346.761 1.765609386384e+016
4	16351609 416611 272897 325567 7742477.501393205761 9223004.794921915832 12667 0 1 6039 6039

