file 5707834 1513247210                                         
version 2
run General-0-20171214-11:24:45-7344
attr configname General
attr datetime 20171214-11:24:45
attr experiment General
attr inifile carrefour.ini
attr iterationvars ""
attr iterationvarsf ""
attr measurement ""
attr network Carrefour
attr processid 7344
attr repetition 0
attr replication #0
attr resultdir results
attr runnumber 0
attr seedset 0
param **.lambda 1
param **.numeroCasse 2
param **.mu 100
param **.tipoSimulazione 1

vector 0 Carrefour.coda InterrivalStat:vector ETV
attr source Interarrivals
attr title "InterArrivals, vector"
vector 1 Carrefour.coda QueueLenghtStat:vector ETV
attr source QueueLenght
attr title "Queue Lenght, vector"
vector 2 Carrefour.coda QueuingStat:vector ETV
attr source Queuing
attr title "Time in Queue, vector"
0	792 1385279 1 66198 7 32886.566482166559 32768 3.6189522e-005 10.6580617308 32886.566482166 66209.669264027
1	1386071 962890 1 66198 7 32886.566482166559 32768 0 0 0 0
2	2348961 962890 1 66198 7 32886.566482166559 32768 0 0 0 0
0	3311851 997606 66200 112995 32889.786067316091 56154.011277850039 23169 3.3866722e-005 8.844053097366 23267.444795684 46645.299811422
1	4309457 698976 66200 112995 32889.786067316091 56154.011277850039 23169 0 0 0 0
2	5008433 698976 66200 112995 32889.786067316091 56154.011277850039 23169 0 0 0 0
0	5707409 44 112997 112997 56154.833326458573 56154.833326458573 1 0.822048608534 0.822048608534 0.822048608534 0.67576391479269
1	5707453 31 112997 112997 56154.833326458573 56154.833326458573 1 0 0 0 0
2	5707484 31 112997 112997 56154.833326458573 56154.833326458573 1 0 0 0 0
0	5707515 43 112999 112999 56157.978161885913 56157.978161885913 1 3.14483542734 3.14483542734 3.14483542734 9.8899898650528
1	5707558 31 112999 112999 56157.978161885913 56157.978161885913 1 0 0 0 0
2	5707589 31 112999 112999 56157.978161885913 56157.978161885913 1 0 0 0 0
0	5707620 44 113001 113001 56158.794785691164 56158.794785691164 1 0.816623805251 0.816623805251 0.816623805251 0.66687443930262
1	5707664 31 113001 113001 56158.794785691164 56158.794785691164 1 0 0 0 0
2	5707695 31 113001 113001 56158.794785691164 56158.794785691164 1 0 0 0 0
0	5707726 44 113003 113003 56159.015790120151 56159.015790120151 1 0.221004428987 0.221004428987 0.221004428987 0.04884295763187
1	5707770 31 113003 113003 56159.015790120151 56159.015790120151 1 0 0 0 0
2	5707801 31 113003 113003 56159.015790120151 56159.015790120151 1 0 0 0 0

