version 2
run General-6-20180202-18:51:50-10788
attr configname General
attr datetime 20180202-18:51:50
attr experiment General
attr inifile carrefour.ini
attr iterationvars $0=30
attr iterationvarsf 30-
attr measurement $0=30
attr network Carrefour
attr processid 10788
attr repetition 0
attr replication #0
attr resultdir results
attr runnumber 6
attr seedset 6
param **.lambda 30
param **.numeroCasse 10
param **.mu 30
param **.tipoSimulazione 0
param **.delay 0
param **.ServiceType 0

vector 0 Carrefour.coda 1_Lambda:vector ETV
attr source Interarrivals
attr title "1/lambda, vector"
vector 1 Carrefour.coda E_Nq:vector ETV
attr source QueueLenght
attr title "E[Nq], vector"
vector 2 Carrefour.coda E_W:vector ETV
attr source Queuing
attr title "E[W], vector"
vector 3 Carrefour.decisore E_R:vector ETV
attr source TotalTime
attr title "E[R], vector"
vector 4 Carrefour.decisore ActiveTillStat:vector ETV
attr source ActiveTill
attr title "Active Till, vector"
0	1	7	7
0	3	28.677528091033	21.677528091033
0	5	49.379620329226	20.702092238193
0	7	52.297471187211	2.917850857985
0	11	80.783801111556	28.486329924345
0	16	127.067813038131	46.284011926575
0	19	164.019665518709	36.951852480578
0	21	179.777077380331	15.757411861622
0	23	181.458028662432	1.680951282101
0	27	228.827112876207	47.369084213775
0	31	288.925039906375	60.097927030168
0	34	296.830132704606	7.905092798231
0	36	300.514003622517	3.683870917911
0	39	307.617154573971	7.103150951454
0	41	308.250057775641	0.63290320167
0	43	316.8472140739	8.597156298259
0	48	342.055449902509	25.208235828609
0	52	451.650129595198	109.59467969269
0	55	463.932528941476	12.282399346278
0	57	482.034411772618	18.101882831142
0	60	499.85790268883	17.823490916212
0	64	509.190206938964	9.332304250134
0	67	587.135938943297	77.945732004333
0	69	590.27748528633	3.141546343033
0	72	603.260813739934	12.983328453604
0	74	617.649271278216	14.388457538282
0	77	634.566218529629	16.916947251413
0	80	657.576677297831	23.010458768202
0	83	680.792710571959	23.216033274128
0	85	689.394987079313	8.602276507354
0	87	696.322208032717	6.927220953404
0	93	719.772711325235	23.450503292518
0	95	723.925038178177	4.152326852942
0	100	776.683842186967	52.75880400879
0	103	829.329463597367	52.6456214104
0	105	834.074664566742	4.745200969375
0	108	850.548943747832	16.47427918109
0	110	875.66591637527	25.116972627438
0	113	876.048219436988	0.382303061718
0	116	893.174361834639	17.126142397651
0	118	894.600217828674	1.425855994035
0	121	902.954679020584	8.35446119191
0	125	908.015711572851	5.061032552267
0	130	1036.284888138196	128.26917656534
0	133	1074.882522995279	38.597634857083
0	135	1081.544990400262	6.662467404983
0	139	1216.660449871917	135.11545947165
0	141	1218.25993236668	1.599482494763
0	144	1255.196052762166	36.936120395486
0	147	1288.622782296746	33.42672953458
0	149	1322.646425326564	34.023643029818
0	151	1331.493073673495	8.846648346931
0	153	1332.417081979677	0.924008306182
0	155	1342.801553368529	10.384471388852
0	160	1358.986873264981	16.185319896452
0	163	1376.669502921594	17.682629656613
0	168	1441.985712686027	65.316209764433
0	170	1443.342199483038	1.356486797011
0	173	1450.815117599817	7.472918116779
0	178	1583.392562275861	132.57744467604
0	181	1649.230499677546	65.837937401685
0	183	1655.733712255081	6.503212577535
0	186	1666.464513496707	10.730801241626
0	188	1684.517184634224	18.052671137517
0	191	1701.4276726685	16.910488034276
0	196	1780.27746127925	78.84978861075
0	198	1807.601375929907	27.323914650657
0	200	1835.590727925994	27.989351996087
0	202	1838.542707888095	2.951979962101
0	208	1923.556905683919	85.014197795824
0	210	1929.693238809281	6.136333125362
0	212	1941.059007702262	11.365768892981
0	216	1993.994207341715	52.935199639453
0	219	2005.016712374013	11.022505032298
0	221	2006.413783131428	1.397070757415
0	224	2043.731946860644	37.318163729216
0	226	2045.300471520202	1.568524659558
0	230	2054.942114637536	9.641643117334
0	232	2087.346896532712	32.404781895176
0	236	2122.269436501503	34.922539968791
0	241	2135.364039636786	13.094603135283
0	243	2157.892320388492	22.528280751706
0	245	2169.859635745673	11.967315357181
0	248	2197.862198312333	28.00256256666
0	252	2220.014572671209	22.152374358876
0	256	2369.097390550996	149.08281787979
0	259	2456.155138846988	87.057748295992
0	261	2472.274009956425	16.118871109437
0	263	2483.705484206635	11.43147425021
0	268	2586.951435538741	103.24595133211
0	271	2601.671051508114	14.719615969373
0	273	2602.455905762551	0.784854254437
0	275	2610.25713301797	7.801227255419
0	277	2611.265504710754	1.008371692784
0	282	2680.18878586155	68.923281150796
0	285	2721.472982470839	41.284196609289
0	287	2728.948636895495	7.475654424656
0	290	2738.947879071752	9.999242176257
0	293	2746.701626359158	7.753747287406
0	297	2754.922523950092	8.220897590934
0	301	2818.895997707938	63.973473757846
0	304	2900.899692500559	82.003694792621
0	307	2937.570221861358	36.670529360799
0	310	2961.122653746662	23.552431885304
0	313	3010.290193596594	49.167539849932
0	316	3159.36996213133	149.07976853474
0	318	3182.807436162193	23.437474030863
0	320	3194.432274166573	11.62483800438
0	322	3207.865772276901	13.433498110328
0	326	3218.743430752746	10.877658475845
0	330	3278.68141785604	59.937987103294
0	332	3287.19346886456	8.51205100852
0	336	3336.592921755227	49.399452890667
0	339	3363.087272669598	26.494350914371
0	341	3383.181798073516	20.094525403918
0	345	3411.644248793461	28.462450719945
0	349	3440.751592626977	29.107343833516
0	352	3504.6658175833	63.914224956323
0	354	3506.665902715104	2.000085131804
0	357	3544.096305718609	37.430403003505
0	361	3617.31174243749	73.215436718881
0	364	3623.999096913491	6.687354476001
0	367	3719.253070486855	95.253973573364
0	370	3738.429769425345	19.17669893849
0	372	3749.990542845865	11.56077342052
0	375	3765.453446329539	15.462903483674
0	379	3869.510250771076	104.05680444154
0	381	3872.65447326052	3.144222489444
0	385	3904.161970070743	31.507496810223
0	388	3940.692259411104	36.530289340361
0	391	3956.608276449127	15.916017038023
0	393	4002.954731436308	46.346454987181
0	396	4007.897875641719	4.943144205411
0	400	4100.527195881756	92.629320240037
0	402	4193.669293052384	93.142097170628
0	404	4199.090307080103	5.421014027719
0	409	4214.761312632735	15.671005552632
0	412	4222.01794425953	7.256631626795
0	415	4255.197938146757	33.179993887227
0	418	4313.718323078597	58.52038493184
0	420	4341.559943868552	27.841620789955
0	422	4347.046150384226	5.486206515674
0	427	4555.292283954846	208.24613357062
0	430	4612.618675476933	57.326391522087
0	432	4619.21515698246	6.596481505527
0	435	4649.556185666367	30.341028683907
0	437	4665.042634874425	15.486449208058
0	439	4671.943291395155	6.90065652073
0	445	4701.450093109967	29.506801714812
0	447	4722.312375580748	20.862282470781
0	449	4739.400329701023	17.087954120275
0	452	4751.40338849506	12.003058794037
0	455	4762.037437641999	10.634049146939
0	459	4785.435236006442	23.397798364443
0	462	4813.90499323276	28.469757226318
0	466	4846.674011245809	32.769018013049
0	469	4873.806974842015	27.132963596206
0	472	4897.457052950908	23.650078108893
0	475	4905.070284408511	7.613231457603
0	477	4911.058473182717	5.988188774206
0	479	4912.154355211987	1.09588202927
0	482	4930.925797423782	18.771442211795
0	484	4938.817428253989	7.891630830207
0	490	4985.12567456338	46.308246309391
0	493	5054.503117839351	69.377443275971
0	496	5067.475538712942	12.972420873591
0	498	5086.239860019594	18.764321306652
0	501	5132.971654859476	46.731794839882
0	505	5158.302065804147	25.330410944671
0	508	5221.222537685738	62.920471881591
0	511	5241.053783596641	19.831245910903
0	514	5324.441950832458	83.388167235817
0	516	5331.983754432222	7.541803599764
0	519	5341.478689599754	9.494935167532
0	523	5416.971550519526	75.492860919772
0	526	5430.579598427367	13.608047907841
0	528	5461.390251450542	30.810653023175
0	532	5496.895287894753	35.505036444211
0	534	5502.151859847202	5.256571952449
0	537	5533.578150317116	31.426290469914
0	540	5552.491155940881	18.913005623765
0	542	5582.294719661208	29.803563720327
0	547	5642.25109008333	59.956370422122
0	550	5693.009123506156	50.758033422826
0	552	5700.131229432152	7.122105925996
0	554	5737.226735863977	37.095506431825
0	557	5756.557463098216	19.330727234239
0	560	5788.144748953012	31.587285854796
0	562	5793.670613632126	5.525864679114
0	565	5798.266395736719	4.595782104593
0	571	5854.094488680821	55.828092944102
0	574	5858.945110059095	4.850621378274
0	576	5897.072601961802	38.127491902707
0	580	5919.972294274663	22.899692312861
0	583	5958.362454038663	38.390159764
0	586	5962.08736381479	3.724909776127
0	589	5980.451779189644	18.364415374854
0	591	5992.524524033887	12.072744844243
0	593	6002.450517920232	9.925993886345
0	598	6041.536205353983	39.085687433751
0	600	6058.86314084197	17.326935487987
0	604	6114.776588290745	55.913447448775
0	606	6131.58124688393	16.804658593185
0	610	6171.259142965325	39.677896081395
0	613	6296.789336084514	125.53019311919
0	616	6324.729355492396	27.940019407882
0	618	6326.216247845274	1.486892352878
0	620	6326.612779311749	0.396531466475
0	624	6359.553034351044	32.940255039295
0	627	6395.132486209894	35.57945185885
0	630	6412.216600054453	17.084113844559
0	634	6446.382100775756	34.165500721303
0	636	6468.637346847881	22.255246072125
0	640	6487.892988571089	19.255641723208
0	642	6500.094797908408	12.201809337319
0	645	6572.396181455178	72.30138354677
0	648	6598.852679264784	26.456497809606
0	650	6600.405866489105	1.553187224321
0	655	6718.542554124483	118.13668763538
0	658	6743.810612669014	25.268058544531
0	660	6755.98806770831	12.177455039296
0	662	6756.46585796437	0.47779025606
0	665	6784.661803550461	28.195945586091
0	668	6827.190372824467	42.528569274006
0	673	6877.747234873243	50.556862048776
0	676	6881.29313197908	3.545897105837
0	678	6910.414713790326	29.121581811246
0	681	6938.870055037609	28.455341247283
0	683	6940.082432640281	1.212377602672
0	687	6952.988548580637	12.906115940356
0	690	6980.669853407751	27.681304827114
0	694	7060.699032668285	80.029179260534
0	696	7066.507322340355	5.80828967207
0	700	7125.59770573498	59.090383394625
0	702	7150.233127440134	24.635421705154
0	706	7199.56846527336	49.335337833226
0	709	7250.694520102712	51.126054829352
0	712	7284.854445636509	34.159925533797
0	714	7292.267654092137	7.413208455628
0	718	7419.13191678687	126.86426269473
0	721	7433.327682550957	14.195765764087
0	724	7468.713100130542	35.385417579585
0	727	7578.265100096078	109.55199996554
0	730	7681.34547939107	103.08037929499
0	732	7730.234649410529	48.889170019459
0	734	7748.560118089696	18.325468679167
0	736	7751.458632084198	2.898513994502
0	741	7788.343381757403	36.884749673205
0	743	7806.421273459421	18.077891702018
0	746	7818.439219263287	12.017945803866
0	751	7857.917521171121	39.478301907834
0	754	7869.936368005835	12.018846834714
0	757	7909.776887768722	39.840519762887
0	760	8009.084190891028	99.307303122306
0	763	8037.694819749327	28.610628858299
0	766	8076.040971346032	38.346151596705
0	768	8095.318648774023	19.277677427991
0	770	8099.786793511092	4.468144737069
0	774	8117.700812807331	17.914019296239
0	777	8130.443562464209	12.742749656878
0	779	8133.452345005381	3.008782541172
0	781	8140.95643861	7.504093604619
0	787	8167.798496900288	26.842058290288
0	789	8175.048245196075	7.249748295787
0	791	8184.862048966764	9.813803770689
0	795	8203.005192065025	18.143143098261
0	799	8236.34177608625	33.336584021225
0	802	8271.023823099269	34.682047013019
0	805	8319.400498538167	48.376675438898
0	808	8327.846036702044	8.445538163877
0	810	8330.547785640515	2.701748938471
0	814	8364.503739431965	33.95595379145
0	817	8463.538750339709	99.035010907744
0	819	8465.974078144104	2.435327804395
0	823	8506.940338004067	40.966259859963
0	825	8509.005047920852	2.064709916785
0	828	8531.806173038948	22.801125118096
0	830	8551.115888296368	19.30971525742
0	835	8571.918267019196	20.802378722828
0	837	8595.856695998643	23.938428979447
0	840	8626.969699340272	31.113003341629
0	842	8630.413386114262	3.44368677399
0	846	8709.90563043212	79.492244317858
0	849	8735.549744528693	25.644114096573
0	852	8784.835919525751	49.286174997058
0	855	8833.075084296054	48.239164770303
0	859	8858.555707860978	25.480623564924
0	862	8881.520553100707	22.964845239729
0	865	8918.02333202009	36.502778919383
0	867	8918.232085662666	0.208753642576
0	869	8925.398923755367	7.166838092701
0	871	8926.809897405907	1.41097365054
0	873	8928.995350961952	2.185453556045
0	879	8942.574993382958	13.579642421006
0	883	8955.500642672984	12.925649290026
0	886	8995.468865605369	39.968222932385
0	889	9064.303770428832	68.834904823463
0	891	9078.374863448109	14.071093019277
0	893	9088.067305633623	9.692442185514
0	897	9110.933659512472	22.866353878849
0	900	9116.330741524262	5.39708201179
0	902	9116.530948604462	0.2002070802
0	904	9124.622139198646	8.091190594184
0	907	9148.133372710993	23.511233512347
0	913	9186.429914627919	38.296541916926
0	916	9197.477612322524	11.047697694605
0	918	9225.886191597114	28.40857927459
0	922	9288.680582524542	62.794390927428
0	925	9320.192617785142	31.5120352606
0	927	9350.222329167204	30.029711382062
0	930	9369.582185840911	19.359856673707
0	934	9392.22235114095	22.640165300039
0	937	9437.732982689542	45.510631548592
0	939	9460.710444425187	22.977461735645
0	942	9507.872993455054	47.162549029867
0	946	9631.379893491955	123.5069000369
0	948	9644.716662179454	13.336768687499
0	952	9696.470884146097	51.754221966643
0	954	9719.075628777095	22.604744630998
0	957	9740.841808519516	21.766179742421
0	961	9791.388668727124	50.546860207608
0	963	9797.498689272324	6.1100205452
0	965	9806.114684417052	8.615995144728
0	969	9836.146711744365	30.032027327313
0	971	9847.37556637501	11.228854630645
0	974	9850.584606340137	3.209039965127
0	976	9852.919811478412	2.335205138275
0	982	9926.730605229881	73.810793751469
0	985	9958.387897531345	31.657292301464
0	988	10041.386882117422	82.998984586077
0	991	10047.707017827821	6.320135710399
0	993	10087.129968904207	39.422951076386
0	997	10168.633851347973	81.503882443766
0	1000	10176.79231920316	8.158467855187
0	1003	10216.697360631881	39.905041428721
0	1005	10230.608216698188	13.910856066307
0	1009	10288.737266016681	58.129049318493
0	1012	10336.287937934124	47.550671917443
0	1015	10369.51264996849	33.224712034366
0	1017	10383.474931956448	13.962281987958
0	1020	10408.528832891874	25.053900935426
0	1022	10411.449699642075	2.920866750201
0	1026	10465.981390603665	54.53169096159
0	1030	10535.276153929745	69.29476332608
0	1032	10546.02476645798	10.748612528235
0	1036	10554.595133275338	8.570366817358
0	1038	10559.332037788134	4.736904512796
0	1040	10566.213920049655	6.881882261521
0	1043	10570.675816658865	4.46189660921
0	1048	10636.431446560044	65.755629901179
0	1050	10653.438423908951	17.006977348907
0	1052	10672.272358279116	18.833934370165
0	1055	10701.494409741088	29.222051461972
0	1059	10760.045754276454	58.551344535366
0	1061	10782.028677806554	21.9829235301
0	1065	10825.713561416559	43.684883610005
0	1068	10832.801568722931	7.088007306372
0	1070	10839.654865971976	6.853297249045
0	1072	10871.503629397874	31.848763425898
0	1075	10875.310157260594	3.80652786272
0	1081	10930.821887536569	55.511730275975
0	1083	10933.161551720576	2.339664184007
0	1087	10971.086539885481	37.924988164905
0	1089	10986.396497073923	15.309957188442
0	1093	11020.100139410273	33.70364233635
0	1095	11023.552522906063	3.45238349579
0	1098	11049.651246656327	26.098723750264
0	1101	11068.839162088228	19.187915431901
0	1103	11085.196630046165	16.357467957937
0	1106	11112.986343808796	27.789713762631
0	1110	11138.551794370164	25.565450561368
0	1114	11174.250893890628	35.699099520464
0	1116	11181.78790227973	7.537008389102
0	1119	11189.262344582212	7.474442302482
0	1123	11243.882666518395	54.620321936183
0	1126	11282.092650668957	38.209984150562
0	1129	11293.522843694212	11.430193025255
0	1131	11357.100963153491	63.578119459279
0	1135	11415.640307877132	58.539344723641
0	1137	11426.924338062005	11.284030184873
0	1139	11430.509716671431	3.585378609426
0	1141	11433.668238143887	3.158521472456
0	1143	11435.766657896884	2.098419752997
0	1145	11441.066747802419	5.300089905535
0	1149	11456.905955996656	15.839208194237
0	1151	11459.504992955152	2.599036958496
0	1157	11473.359887226606	13.854894271454
0	1160	11484.095571684473	10.735684457867
0	1162	11487.768373841879	3.672802157406
0	1165	11498.152332884428	10.383959042549
0	1168	11503.319738515935	5.167405631507
0	1174	11541.648722369663	38.328983853728
0	1177	11585.928703594404	44.279981224741
0	1180	11592.530124894639	6.601421300235
0	1183	11619.010013916403	26.479889021764
0	1185	11623.969434871247	4.959420954844
0	1187	11626.613160123442	2.643725252195
0	1192	11646.973209201122	20.36004907768
0	1194	11660.751240237839	13.778031036717
0	1196	11662.995746839107	2.244506601268
0	1201	11710.069668532104	47.073921692997
0	1203	11710.22532647213	0.155657940026
0	1207	11768.829224796284	58.603898324154
0	1209	11778.975577352585	10.146352556301
0	1211	11796.136686817431	17.161109464846
0	1216	11872.724726282836	76.588039465405
0	1218	11878.067934818666	5.34320853583
0	1221	11881.855600156762	3.787665338096
0	1225	12005.271455631352	123.41585547459
0	1227	12027.57151888873	22.300063257378
0	1230	12041.74957142091	14.17805253218
0	1233	12061.780300556344	20.030729135434
0	1237	12215.41962088545	153.63932032911
0	1240	12245.85646282079	30.43684193534
0	1243	12251.732245995425	5.875783174635
0	1246	12280.416628011631	28.684382016206
0	1248	12320.820373378179	40.403745366548
0	1250	12328.112487822021	7.292114443842
0	1252	12344.40233866819	16.289850846169
0	1254	12349.084204321209	4.681865653019
0	1256	12351.888911010226	2.804706689017
0	1260	12357.11397651118	5.225065500954
0	1266	12409.681972421495	52.567995910315
0	1270	12480.135331766984	70.453359345489
0	1273	12557.708369079189	77.573037312205
0	1275	12591.241947065741	33.533577986552
0	1278	12620.47342128069	29.231474214949
0	1281	12723.093024408812	102.61960312812
0	1284	12740.104450909243	17.011426500431
0	1287	12788.298489712539	48.194038803296
0	1291	12809.343682835143	21.045193122604
0	1293	12852.349110732484	43.005427897341
0	1295	12854.894259317019	2.545148584535
0	1298	12864.784118011977	9.889858694958
0	1300	12875.177994315281	10.393876303304
0	1302	12880.199759906711	5.02176559143
0	1305	12891.926322861236	11.726562954525
0	1310	12902.438096492822	10.511773631586
0	1312	12917.487924477452	15.04982798463
0	1317	12938.422732573484	20.934808096032
0	1320	12957.577561726391	19.154829152907
0	1322	12959.840461908467	2.262900182076
0	1326	12996.412590979627	36.57212907116
0	1328	13029.36109792603	32.948506946403
0	1331	13049.562553007873	20.201455081843
0	1335	13086.410554539501	36.848001531628
0	1338	13108.247454900907	21.836900361406
0	1341	13128.003626448778	19.756171547871
0	1344	13140.531315926743	12.527689477965
0	1347	13149.852368470453	9.32105254371
0	1349	13153.910052203598	4.057683733145
0	1351	13162.454120508615	8.544068305017
0	1354	13189.771144715229	27.317024206614
0	1359	13237.221688867901	47.450544152672
0	1363	13293.813248188159	56.591559320258
0	1366	13376.684711977708	82.871463789549
0	1368	13386.81019109507	10.125479117362
0	1372	13410.688068339469	23.877877244399
0	1375	13430.176119047988	19.488050708519
0	1378	13450.006062102624	19.829943054636
0	1381	13466.369332877568	16.363270774944
0	1383	13480.36207620677	13.992743329202
0	1387	13555.867693879529	75.505617672759
0	1389	13560.765112068676	4.897418189147
0	1392	13591.024562840176	30.2594507715
0	1395	13625.548183169198	34.523620329022
0	1399	13641.122765697967	15.574582528769
0	1402	13658.293885493541	17.171119795574
0	1405	13681.335496760937	23.041611267396
0	1408	13705.977917286254	24.642420525317
0	1410	13731.050011577521	25.072094291267
0	1414	13771.93120313008	40.881191552559
0	1417	13808.556700509793	36.625497379713
0	1420	13875.355167078924	66.798466569131
0	1422	13893.859433482051	18.504266403127
0	1424	13895.078428269269	1.218994787218
0	1428	13914.174602279986	19.096174010717
0	1431	13931.468627421258	17.294025141272
0	1433	13932.723997821203	1.255370399945
0	1437	13959.373947139903	26.6499493187
0	1440	13961.694303551361	2.320356411458
0	1442	13996.395441429725	34.701137878364
0	1447	14039.263024350948	42.867582921223
0	1449	14117.168102008847	77.905077657899
0	1453	14139.689175129834	22.521073120987
0	1456	14152.705342161306	13.016167031472
0	1459	14166.690983602367	13.985641441061
0	1461	14169.151484691564	2.460501089197
0	1465	14211.624899986724	42.47341529516
0	1467	14224.558576655008	12.933676668284
0	1471	14234.583264202072	10.024687547064
0	1474	14260.214094451365	25.630830249293
0	1477	14348.146616188029	87.932521736664
0	1480	14356.951202935856	8.804586747827
0	1483	14374.844395616492	17.893192680636
0	1486	14443.399950167447	68.555554550955
0	1488	14447.793357046139	4.393406878692
0	1492	14492.132198888807	44.338841842668
0	1495	14524.556124490945	32.423925602138
0	1497	14531.311311947081	6.755187456136
0	1500	14542.999756850998	11.688444903917
0	1503	14561.437237213433	18.437480362435
0	1506	14578.479281721893	17.04204450846
0	1508	14583.108937958616	4.629656236723
0	1511	14592.602162844166	9.49322488555
0	1514	14612.592146680972	19.989983836806
0	1516	14616.3896210276	3.797474346628
0	1518	14618.164674797122	1.775053769522
0	1522	14627.733423785178	9.568748988056
0	1528	14659.696706791296	31.963283006118
0	1531	14717.81046821289	58.113761421594
0	1534	14755.195263454257	37.384795241367
0	1536	14762.598595132404	7.403331678147
0	1539	14795.204905866452	32.606310734048
0	1541	14807.929875919359	12.724970052907
0	1545	14850.868905864757	42.939029945398
0	1547	14861.490686271446	10.621780406689
0	1550	14893.779607966593	32.288921695147
0	1552	14895.632738970872	1.853131004279
0	1556	14918.633127921752	23.00038895088
0	1560	14939.011048971637	20.377921049885
0	1562	14940.123888779519	1.112839807882
0	1564	14943.854892047325	3.731003267806
0	1567	14953.063106208892	9.208214161567
0	1572	14978.249614624856	25.186508415964
0	1576	15057.81779423164	79.568179606784
0	1579	15088.903122935095	31.085328703455
0	1581	15099.982083769971	11.078960834876
0	1584	15110.875664381121	10.89358061115
0	1587	15113.899835237444	3.024170856323
0	1589	15118.746974412654	4.84713917521
0	1591	15123.102167052532	4.355192639878
0	1597	15167.341683773993	44.239516721461
0	1599	15204.469570896047	37.127887122054
0	1601	15212.632364104425	8.162793208378
0	1603	15215.247754835888	2.615390731463
0	1608	15248.467150856865	33.219396020977
0	1610	15267.27379814675	18.806647289885
0	1614	15296.340697315495	29.066899168745
0	1616	15319.68076174448	23.340064428985
0	1618	15344.800460280722	25.119698536242
0	1622	15391.385712835192	46.58525255447
0	1624	15391.585841870771	0.200129035579
0	1628	15397.466408690107	5.880566819336
0	1632	15427.373640242097	29.90723155199
0	1636	15535.41983114854	108.04619090644
0	1638	15559.514597123518	24.094765974978
0	1640	15584.960396392762	25.445799269244
0	1642	15588.764553545477	3.804157152715
0	1648	15701.444231490446	112.67967794497
0	1651	15747.118351392254	45.674119901808
0	1653	15775.938841093518	28.820489701264
0	1655	15777.022697693681	1.083856600163
0	1659	15792.152907100658	15.130209406977
0	1662	15813.34605352981	21.193146429152
0	1666	15868.054692924994	54.708639395184
0	1669	15938.113829237691	70.059136312697
0	1671	15952.601687522766	14.487858285075
0	1674	15991.548689825599	38.947002302833
0	1677	16008.36320068394	16.814510858341
0	1680	16050.923317558135	42.560116874195
0	1683	16081.699953978607	30.776636420472
0	1686	16091.329120802484	9.629166823877
0	1690	16134.569789929214	43.24066912673
0	1692	16143.540811589969	8.971021660755
0	1696	16187.431093965487	43.890282375518
0	1699	16291.183155327285	103.7520613618
0	1702	16407.241770232793	116.05861490551
0	1705	16428.732832080223	21.49106184743
0	1708	16532.793969646024	104.0611375658
0	1710	16539.269727430837	6.475757784813
0	1714	16610.660766214025	71.391038783188
0	1716	16617.186065136013	6.525298921988
0	1719	16643.480246708521	26.294181572508
0	1723	16711.052285987254	67.572039278733
0	1725	16720.76301105395	9.710725066696
0	1729	16746.248052128036	25.485041074086
0	1732	16752.416376601726	6.16832447369
0	1734	16760.189511091366	7.77313448964
0	1736	16770.764920064094	10.575408972728
0	1741	16802.499795770492	31.734875706398
0	1744	16817.284528493767	14.784732723275
0	1746	16823.067353671347	5.78282517758
0	1749	16840.291207334664	17.223853663317
0	1751	16858.594356974675	18.303149640011
0	1756	16881.236322766619	22.641965791944
0	1759	16914.411397023732	33.175074257113
0	1761	16919.747032004873	5.335634981141
0	1763	16940.976372046804	21.229340041931
0	1767	16956.772193869439	15.795821822635
0	1770	16983.334368718776	26.562174849337
0	1774	17001.937937691512	18.603568972736
0	1776	17031.392759948927	29.454822257415
0	1779	17056.82274067848	25.429980729553
0	1782	17083.8167049121	26.99396423362
0	1785	17102.4646472119	18.6479422998
0	1789	17244.977355082739	142.51270787084
0	1792	17269.126020521061	24.148665438322
0	1794	17269.685559135683	0.559538614622
0	1798	17307.21265052066	37.527091384977
0	1800	17328.633211703095	21.420561182435
0	1802	17336.560168683243	7.926956980148
0	1807	17446.972684794905	110.41251611166
0	1809	17452.128978392818	5.156293597913
0	1811	17457.23982829531	5.110849902492
0	1813	17459.798265481938	2.558437186628
0	1816	17469.305718018959	9.507452537021
0	1821	17557.868843097893	88.563125078934
0	1824	17567.994294796001	10.125451698108
0	1826	17574.439331478523	6.445036682522
0	1830	17630.930937915151	56.491606436628
0	1832	17650.92001798991	19.989080074759
0	1836	17674.750257152731	23.830239162821
0	1838	17694.642864079469	19.892606926738
0	1841	17723.02698206935	28.384117989881
0	1846	17784.920309882977	61.893327813627
0	1848	17790.451032435613	5.530722552636
0	1850	17792.005483989703	1.55445155409
0	1854	17839.05945301668	47.053969026977
0	1856	17842.372074687383	3.312621670703
0	1860	17864.942308991473	22.57023430409
0	1864	17946.600709033172	81.658400041699
0	1866	17958.886924095383	12.286215062211
0	1868	17960.361187336944	1.474263241561
0	1872	17977.812961453563	17.451774116619
0	1874	17997.147481527981	19.334520074418
0	1879	18066.711840280096	69.564358752115
0	1882	18208.385068253727	141.67322797363
0	1885	18243.496825612399	35.111757358672
0	1887	18291.691830575441	48.195004963042
0	1891	18317.686523397195	25.994692821754
0	1893	18325.866350226586	8.179826829391
0	1896	18366.038368139917	40.172017913331
0	1898	18372.932739723267	6.89437158335
0	1901	18422.882062091669	49.949322368402
0	1905	18456.602831915344	33.720769823675
0	1907	18477.126348402986	20.523516487642
0	1910	18493.900780477985	16.774432074999
0	1915	18616.933728114355	123.03294763637
0	1918	18669.34598246677	52.412254352415
0	1920	18702.780168069299	33.434185602529
0	1923	18708.00045783722	5.220289767921
0	1926	18732.210324584881	24.209866747661
0	1929	18747.356707335827	15.146382750946
0	1932	18788.888903536792	41.532196200965
0	1934	18793.777236559333	4.888333022541
0	1936	18794.669097318857	0.891860759524
0	1942	18843.782885693931	49.113788375074
0	1944	18854.830159818127	11.047274124196
0	1947	18872.179997185497	17.34983736737
0	1949	18893.084358095458	20.904360909961
0	1954	18962.183942325833	69.099584230375
0	1956	18966.125720784191	3.941778458358
0	1959	19005.838288091345	39.712567307154
0	1963	19029.260250350746	23.421962259401
0	1965	19033.163027260213	3.902776909467
0	1968	19043.939385338285	10.776358078072
0	1971	19087.735873084578	43.796487746293
0	1975	19158.037955500916	70.302082416338
0	1978	19166.488182220056	8.45022671914
0	1981	19255.190995414933	88.702813194877
0	1984	19311.871866398717	56.680870983784
0	1986	19320.434519680871	8.562653282154
0	1988	19327.142559136962	6.708039456091
0	1991	19335.774808571773	8.632249434811
0	1994	19356.715538043754	20.940729471981
0	1996	19360.486625312609	3.771087268855
0	1998	19362.501068894127	2.014443581518
0	2001	19378.172462419821	15.671393525694
0	2006	19387.439292886517	9.266830466696
0	2009	19399.705032985137	12.26574009862
0	2013	19431.102999329372	31.397966344235
0	2015	19441.317503579906	10.214504250534
0	2019	19509.136708649161	67.819205069255
0	2023	19549.774056221422	40.637347572261
0	2025	19566.629442437432	16.85538621601
0	2028	19569.304343103861	2.674900666429
0	2030	19589.825008155706	20.520665051845
0	2032	19600.63147573065	10.806467574944
0	2034	19606.643365983843	6.011890253193
0	2038	19627.447851376736	20.804485392893
0	2043	19686.253986723371	58.806135346635
0	2047	19708.759341493585	22.505354770214
0	2050	19832.756065833369	123.99672433978
0	2053	19926.297736428616	93.541670595247
0	2056	19997.536676095094	71.238939666478
0	2058	20005.169889750595	7.633213655501
0	2062	20031.953496813402	26.783607062807
0	2065	20085.294741060233	53.341244246831
0	2067	20124.676589611511	39.381848551278
0	2071	20184.038961672126	59.362372060615
0	2073	20217.003292203913	32.964330531787
0	2075	20224.587331915533	7.58403971162
0	2077	20233.948870327013	9.36153841148
0	2082	20254.66287117206	20.714000845047
0	2085	20270.804177621313	16.141306449253
0	2089	20338.325148908742	67.520971287429
0	2092	20404.710500857905	66.385351949163
0	2094	20424.846008940368	20.135508082463
0	2096	20449.529288490993	24.683279550625
0	2100	20517.900565806938	68.371277315945
0	2104	20579.680194464123	61.779628657185
0	2107	20648.115063427449	68.434868963326
0	2110	20704.081747899242	55.966684471793
0	2112	20725.703637393628	21.621889494386
0	2115	20737.082986498664	11.379349105036
0	2118	20742.29545408069	5.212467582026
0	2121	20756.728493604839	14.433039524149
0	2123	20758.03050639003	1.302012785191
0	2128	20833.56788029484	75.53737390481
0	2131	20856.819073256786	23.251192961946
0	2133	20878.434757391789	21.615684135003
0	2137	20969.943605149178	91.508847757389
0	2139	20976.968868804518	7.02526365534
0	2142	20981.847866641965	4.878997837447
0	2144	20997.620361937991	15.772495296026
0	2146	20997.6254924786	0.005130540609
0	2149	21017.818751051378	20.193258572778
0	2154	21026.24239597738	8.423644926002
0	2158	21052.590371052727	26.347975075347
0	2161	21085.210458179899	32.620087127172
0	2164	21152.78842356896	67.577965389061
0	2167	21185.81449689429	33.02607332533
0	2169	21187.749015576213	1.934518681923
0	2173	21322.933049770556	135.18403419434
0	2176	21333.008215653997	10.075165883441
0	2178	21337.295346008867	4.28713035487
0	2180	21362.123301009241	24.827955000374
0	2182	21364.117709663629	1.994408654388
0	2186	21372.855365421903	8.737655758274
0	2189	21378.301673484844	5.446308062941
0	2193	21387.484671786261	9.182998301417
0	2196	21430.629827211894	43.145155425633
0	2199	21494.08186459149	63.452037379596
0	2203	21644.158420603615	150.07655601212
0	2206	21703.380825864185	59.22240526057
0	2208	21723.825588053587	20.444762189402
0	2212	21735.965115958967	12.13952790538
0	2215	21768.013217124826	32.048101165859
0	2218	21781.944413255256	13.93119613043
0	2220	21786.642566004635	4.698152749379
0	2222	21806.222125311439	19.579559306804
0	2224	21808.252261974692	2.030136663253
0	2226	21810.476232253269	2.223970278577
0	2228	21810.75676666285	0.280534409581
0	2234	21836.578060099506	25.821293436656
0	2237	21847.488544695879	10.910484596373
0	2242	21879.106457775964	31.617913080085
0	2245	21921.743540325814	42.63708254985
0	2247	21927.111278610601	5.367738284787
0	2250	21951.601774843859	24.490496233258
0	2253	22006.792871289526	55.191096445667
0	2255	22009.258228956355	2.465357666829
0	2258	22023.960147070594	14.701918114239
0	2261	22043.599382474013	19.639235403419
0	2265	22069.417166079614	25.817783605601
0	2269	22097.487513424313	28.070347344699
0	2271	22099.717240549288	2.229727124975
0	2273	22101.551909045333	1.834668496045
0	2277	22141.794977260361	40.243068215028
0	2279	22150.761964798375	8.966987538014
0	2281	22151.492034398722	0.730069600347
0	2286	22232.922912742153	81.430878343431
0	2290	22272.64714035482	39.724227612667
0	2293	22375.590523369937	102.94338301512
0	2296	22411.920853051998	36.330329682061
0	2299	22426.979130274161	15.058277222163
0	2301	22434.162622775198	7.183492501037
0	2304	22473.799902778603	39.637280003405
0	2306	22486.378828976426	12.578926197823
0	2308	22491.901954920348	5.523125943922
0	2311	22501.030317383917	9.128362463569
0	2314	22507.120943186408	6.090625802491
0	2318	22544.788148378218	37.66720519181
0	2322	22575.203268895874	30.415120517656
0	2325	22616.577380211951	41.374111316077
0	2328	22663.378023961549	46.800643749598
0	2332	22690.885633992322	27.507610030773
0	2334	22692.63752108162	1.751887089298
0	2338	22736.172311432961	43.534790351341
0	2341	22819.630827168942	83.458515735981
0	2344	22858.866374730761	39.235547561819
0	2346	22870.380907133682	11.514532402921
0	2348	22885.463890613723	15.082983480041
0	2351	22889.809136484226	4.345245870503
0	2355	22903.953839267676	14.14470278345
0	2359	22995.218848743477	91.265009475801
0	2361	23002.426188940371	7.207340196894
0	2365	23024.519509290816	22.093320350445
0	2367	23067.607070342395	43.087561051579
0	2369	23070.830454994399	3.223384652004
0	2372	23076.887743960096	6.057288965697
0	2374	23078.61643787196	1.728693911864
0	2379	23104.935688352738	26.319250480778
0	2383	23145.940641630966	41.004953278228
0	2385	23202.880868998484	56.940227367518
0	2388	23205.772056190553	2.891187192069
0	2391	23215.43244947714	9.660393286587
0	2394	23262.597534640953	47.165085163813
0	2396	23262.76543349832	0.167898857367
0	2399	23283.103783868708	20.338350370388
0	2403	23321.595545859108	38.4917619904
0	2407	23374.188562027098	52.59301616799
0	2410	23486.293192492794	112.1046304657
0	2413	23510.30840872096	24.015216228166
0	2415	23534.421216704467	24.112807983507
0	2417	23537.144011284842	2.722794580375
0	2419	23539.147329081518	2.003317796676
0	2421	23541.514371292383	2.367042210865
0	2428	23641.574898207701	100.06052691532
0	2430	23650.207240556932	8.632342349231
0	2433	23676.755377342462	26.54813678553
0	2435	23690.528091665874	13.772714323412
0	2437	23697.71738047501	7.189288809136
0	2441	23730.024208242264	32.306827767254
0	2443	23744.767177559569	14.742969317305
0	2446	23766.754930878298	21.987753318729
0	2452	23793.70722274758	26.952291869282
0	2455	23842.415530618347	48.708307870767
0	2457	23844.496184655817	2.08065403747
0	2461	23882.46689486339	37.970710207573
0	2464	23897.960158422267	15.493263558877
0	2467	23938.774743634193	40.814585211926
0	2470	24004.294987283873	65.52024364968
0	2472	24025.058621555088	20.763634271215
0	2476	24060.048708760801	34.990087205713
0	2478	24064.622407325718	4.573698564917
0	2480	24084.905926717183	20.283519391465
0	2482	24086.169421549664	1.263494832481
0	2484	24088.327903605894	2.15848205623
0	2488	24123.245749359859	34.917845753965
0	2494	24184.196382503053	60.950633143194
0	2497	24204.458325244916	20.261942741863
0	2499	24205.743061410907	1.284736165991
0	2503	24240.825718068001	35.082656657094
0	2505	24257.704738514281	16.87902044628
0	2509	24277.617947464287	19.913208950006
0	2512	24444.081952047213	166.46400458293
0	2515	24514.141835137239	70.059883090026
0	2517	24531.558665409117	17.416830271878
0	2519	24544.800703399983	13.242037990866
0	2521	24545.034306304704	0.233602904721
0	2525	24570.476474821152	25.442168516448
0	2529	24631.333058303827	60.856583482675
0	2532	24665.722188732121	34.389130428294
0	2536	24707.205676824469	41.483488092348
0	2538	24717.929089482107	10.723412657638
0	2541	24725.048458505633	7.119369023526
0	2544	24743.950512515383	18.90205400975
0	2547	24781.013158748776	37.062646233393
0	2550	24784.999952737402	3.986793988626
0	2552	24805.309023962568	20.309071225166
0	2554	24810.299810003687	4.990786041119
0	2556	24830.67049856105	20.370688557363
0	2559	24843.285948497163	12.615449936113
0	2565	24854.522371815989	11.236423318826
0	2568	24880.123827137359	25.60145532137
0	2572	24943.420703268655	63.296876131296
0	2574	24948.786684024676	5.365980756021
0	2576	24977.116458648225	28.329774623549
0	2581	25029.115708591627	51.999249943402
0	2583	25035.875189835739	6.759481244112
0	2586	25062.674098963832	26.798909128093
0	2589	25107.140157395593	44.466058431761
0	2593	25196.546991753184	89.406834357591
0	2595	25211.284606580447	14.737614827263
0	2597	25228.294868530722	17.010261950275
0	2599	25239.812951904222	11.5180833735
0	2601	25241.970110268837	2.157158364615
0	2606	25278.308846217812	36.338735948975
0	2610	25297.888725913588	19.579879695776
0	2613	25312.334582590085	14.445856676497
0	2617	25424.393316042629	112.05873345254
0	2619	25446.007002964717	21.613686922088
0	2623	25493.298767038345	47.291764073628
0	2626	25554.315004055948	61.016237017603
0	2628	25555.126307092249	0.811303036301
0	2632	25578.998559917669	23.87225282542
0	2634	25582.131428633285	3.132868715616
0	2637	25613.101569546039	30.970140912754
0	2641	25635.957638522782	22.856068976743
0	2644	25795.774539043938	159.81690052116
0	2646	25804.219348705113	8.444809661175
0	2649	25834.569270507472	30.349921802359
0	2653	25854.028479450123	19.459208942651
0	2656	25946.865629313259	92.837149863136
0	2659	25953.513271794764	6.647642481505
0	2661	25963.402693905578	9.889422110814
0	2665	26048.533223519825	85.130529614247
0	2668	26182.835998904912	134.30277538509
0	2670	26183.025125491242	0.18912658633
0	2673	26229.407178739807	46.382053248565
0	2675	26240.133939176067	10.72676043626
0	2677	26241.046650515416	0.912711339349
0	2680	26249.381794425492	8.335143910076
0	2683	26250.286692281698	0.904897856206
0	2687	26271.678837030089	21.392144748391
0	2690	26281.666408117674	9.987571087585
0	2692	26290.253916598551	8.587508480877
0	2697	26315.355492170879	25.101575572328
0	2700	26352.164346263127	36.808854092248
0	2704	26451.331998867175	99.167652604048
0	2707	26556.321177240132	104.98917837296
0	2709	26570.244638378558	13.923461138426
0	2712	26612.322623350926	42.077984972368
0	2714	26618.164521578416	5.84189822749
0	2718	26663.122798441981	44.958276863565
0	2721	26690.227550324636	27.104751882655
0	2724	26700.942462775511	10.714912450875
0	2726	26711.810609696165	10.868146920654
0	2731	26736.536598214065	24.7259885179
0	2733	26740.348248708057	3.811650493992
0	2737	26797.199343410345	56.851094702288
0	2740	26840.81379776104	43.614454350695
0	2742	26854.311986234031	13.498188472991
0	2746	26888.033774810001	33.72178857597
0	2749	26916.809572471085	28.775797661084
0	2751	26986.52324041234	69.713667941255
0	2753	26988.804397294129	2.281156881789
0	2755	26990.398661660597	1.594264366468
0	2759	27009.826180151189	19.427518490592
0	2764	27059.405088920589	49.5789087694
0	2767	27136.203537105293	76.798448184704
0	2769	27136.250078928432	0.046541823139
0	2771	27152.709133039798	16.459054111366
0	2775	27219.138078836376	66.428945796578
0	2779	27236.329674650298	17.191595813922
0	2782	27280.501969133156	44.172294482858
0	2785	27292.557994136265	12.056025003109
0	2787	27336.698951036679	44.140956900414
0	2790	27341.800834246861	5.101883210182
0	2794	27380.804232871311	39.00339862445
0	2797	27400.055291840402	19.251058969091
0	2800	27438.722390981321	38.667099140919
0	2803	27443.453352522942	4.730961541621
0	2805	27445.103752510651	1.650399987709
0	2808	27456.094807473995	10.991054963344
0	2811	27484.553565441399	28.458757967404
0	2815	27550.37602824206	65.822462800661
0	2817	27551.423388214353	1.047359972293
0	2820	27567.244699608662	15.821311394309
0	2823	27580.486921896038	13.242222287376
0	2827	27680.689644575142	100.2027226791
0	2830	27696.244027353595	15.554382778453
0	2833	27769.385935991959	73.141908638364
0	2835	27806.868144837043	37.482208845084
0	2837	27865.041134640452	58.172989803409
0	2840	27886.700166747766	21.659032107314
0	2842	27903.482634590304	16.782467842538
0	2848	27933.281723194575	29.799088604271
0	2851	27936.436156108052	3.154432913477
0	2853	27999.039400910909	62.603244802857
0	2856	28003.675344351814	4.635943440905
0	2858	28043.887824381668	40.212480029854
0	2863	28117.065266932732	73.177442551064
0	2865	28125.800938238404	8.735671305672
0	2869	28195.710977519917	69.910039281513
0	2872	28227.879785158564	32.168807638647
0	2874	28233.45258696178	5.572801803216
0	2876	28242.120877528386	8.668290566606
0	2878	28261.082544256369	18.961666727983
0	2882	28275.186553207389	14.10400895102
0	2885	28305.966483385274	30.779930177885
0	2888	28317.714662471682	11.748179086408
0	2890	28331.110691935161	13.396029463479
0	2895	28379.25625681543	48.145564880269
0	2899	28444.816842438174	65.560585622744
0	2901	28469.577628674353	24.760786236179
0	2903	28474.535992137649	4.958363463296
0	2907	28489.358831098313	14.822838960664
0	2910	28513.130002420363	23.77117132205
0	2913	28520.671326466365	7.541324046002
0	2917	28541.618661988502	20.947335522137
0	2920	28567.689669539997	26.071007551495
0	2922	28570.329767480285	2.640097940288
0	2926	28612.477714123648	42.147946643363
0	2929	28641.143451992293	28.665737868645
0	2931	28670.053511398046	28.910059405753
0	2934	28715.784877221459	45.731365823413
0	2936	28731.015496373339	15.23061915188
0	2939	28747.831303548951	16.815807175612
0	2943	28786.884253577687	39.052950028736
0	2947	28829.443157414653	42.558903836966
0	2950	28840.739100048176	11.295942633523
0	2952	28854.889738810552	14.150638762376
0	2956	28866.063153389915	11.173414579363
0	2958	28879.55151768362	13.488364293705
0	2962	28934.840756288898	55.289238605278
0	2964	28953.997840080289	19.157083791391
0	2967	28984.807743925603	30.809903845314
0	2970	29038.979756469581	54.172012543978
0	2974	29133.368103831675	94.388347362094
0	2977	29154.685031524166	21.316927692491
0	2979	29184.538115316347	29.853083792181
0	2981	29203.488757505564	18.950642189217
0	2984	29217.723814145405	14.235056639841
0	2987	29226.666024169174	8.942210023769
0	2992	29311.225292515165	84.559268345991
0	2994	29321.435588228136	10.210295712971
0	2998	29382.992821328157	61.557233100021
0	3000	29399.826965483093	16.834144154936
0	3003	29428.727097891899	28.900132408806
0	3007	29456.766616154895	28.039518262996
0	3010	29485.369677490481	28.603061335586
0	3012	29526.282122016471	40.91244452599
0	3016	29576.789133682348	50.507011665877
0	3019	29585.079601279744	8.290467597396
0	3021	29637.942292643754	52.86269136401
0	3024	29648.251891068023	10.309598424269
0	3028	29712.389419036911	64.137527968888
0	3031	29742.521005629653	30.131586592742
0	3034	29775.375144612305	32.854138982652
0	3036	29855.847283149898	80.472138537593
0	3038	29871.860954626097	16.013671476199
0	3040	29873.985425756434	2.124471130337
0	3042	29877.210311621529	3.224885865095
0	3047	29890.614010892152	13.403699270623
0	3051	29923.503570037756	32.889559145604
0	3053	29933.969817246246	10.46624720849
0	3057	29949.849680706099	15.879863459853
0	3061	30073.614767818184	123.76508711208
0	3064	30168.356602962581	94.741835144397
0	3066	30221.062243507805	52.705640545224
0	3069	30248.07874567938	27.016502171575
0	3072	30258.060205552907	9.981459873527
0	3076	30306.094031030083	48.033825477176
0	3078	30364.273952484434	58.179921454351
0	3081	30390.257902434834	25.9839499504
0	3084	30413.558274497527	23.300372062693
0	3086	30441.432609340509	27.874334842982
0	3090	30483.793979767686	42.361370427177
0	3093	30489.577326210545	5.783346442859
0	3096	30524.230108232067	34.652782021522
0	3099	30528.975187102903	4.745078870836
0	3103	30554.982595237673	26.00740813477
0	3106	30613.923860985194	58.941265747521
0	3108	30628.778560945976	14.854699960782
0	3112	30680.387186275613	51.608625329637
0	3115	30710.089347545158	29.702161269545
0	3117	30710.305666977023	0.216319431865
0	3121	30802.000890005216	91.695223028193
0	3124	30937.514639373339	135.51374936812
0	3127	30954.451482144873	16.936842771534
0	3129	30963.939405928193	9.48792378332
0	3132	30979.023147976834	15.083742048641
0	3134	30986.237960615187	7.214812638353
0	3136	30993.130350989335	6.892390374148
0	3141	31016.251362521849	23.121011532514
0	3145	31104.715542607236	88.464180085387
0	3147	31147.269773993641	42.554231386405
0	3150	31195.128941088751	47.85916709511
0	3153	31205.964576687744	10.835635598993
0	3157	31237.138057169698	31.173480481954
0	3160	31256.288673355536	19.150616185838
0	3163	31305.258487480189	48.969814124653
0	3165	31310.007520671869	4.74903319168
0	3169	31359.441678139687	49.434157467818
0	3171	31388.550346461984	29.108668322297
0	3173	31389.833007672778	1.282661210794
0	3176	31417.651863024037	27.818855351259
0	3180	31492.47466566129	74.822802637253
0	3183	31498.141728811441	5.667063150151
0	3185	31501.702125943896	3.560397132455
0	3189	31532.210082998127	30.507957054231
0	3192	31538.758284523573	6.548201525446
0	3196	31611.198472637958	72.440188114385
0	3198	31614.485563684281	3.287091046323
0	3201	31643.823930127822	29.338366443541
0	3203	31656.624640298038	12.800710170216
0	3207	31677.650113377335	21.025473079297
0	3211	31760.716396793106	83.066283415771
0	3213	31791.419362899239	30.702966106133
0	3215	31796.698896268209	5.27953336897
0	3220	31886.643749181826	89.944852913617
0	3223	31906.85242591854	20.208676736714
0	3225	31909.8944895041	3.04206358556
0	3227	31914.350518257316	4.456028753216
0	3230	31929.824969546435	15.474451289119
0	3233	31962.701732539006	32.876762992571
0	3237	31999.409233182326	36.70750064332
0	3240	32020.639163386295	21.229930203969
0	3242	32036.354948676328	15.715785290033
0	3244	32041.240504386969	4.885555710641
0	3246	32045.14398985696	3.903485469991
0	3249	32057.139383162952	11.995393305992
0	3254	32103.124993610864	45.985610447912
0	3259	32192.940027708049	89.815034097185
0	3261	32196.164166052622	3.224138344573
0	3263	32197.824020012449	1.659853959827
0	3268	32242.990881324203	45.166861311754
0	3270	32246.175414049105	3.184532724902
0	3273	32275.608387359113	29.432973310008
0	3276	32323.217601482693	47.60921412358
0	3278	32323.804453838562	0.586852355869
0	3282	32355.027152323088	31.222698484526
0	3284	32366.062094771589	11.034942448501
0	3288	32407.519950599154	41.457855827565
0	3290	32462.793571065037	55.273620465883
0	3294	32489.383589253603	26.590018188566
0	3296	32491.055618184562	1.672028930959
0	3300	32507.584635879738	16.529017695176
0	3304	32566.324462451266	58.739826571528
0	3306	32576.445869403662	10.121406952396
0	3310	32622.525687242885	46.079817839223
0	3312	32630.704595346025	8.17890810314
0	3314	32642.223113542719	11.518518196694
0	3319	32676.026517268101	33.803403725382
0	3321	32700.909967527079	24.883450258978
0	3323	32709.859146597937	8.949179070858
0	3327	32761.395612540422	51.536465942485
0	3329	32769.368876711364	7.973264170942
0	3332	32777.08528026477	7.716403553406
0	3334	32784.209606379007	7.124326114237
0	3336	32786.916424172736	2.706817793729
0	3340	32801.383354367511	14.466930194775
0	3342	32802.996103431458	1.612749063947
0	3348	32841.758988473772	38.762885042314
0	3350	32858.919185478573	17.160197004801
0	3354	32894.067441289918	35.148255811345
0	3357	32923.530180330383	29.462739040465
0	3361	33020.197885477047	96.667705146664
0	3363	33028.087986988055	7.890101511008
0	3367	33156.118643243175	128.03065625512
0	3370	33176.225931305173	20.107288061998
0	3373	33192.907802988222	16.681871683049
0	3375	33212.183005928818	19.275202940596
0	3378	33239.604777236891	27.421771308073
0	3380	33241.791578580935	2.186801344044
0	3382	33251.044894474304	9.253315893369
0	3386	33265.865442015112	14.820547540808
0	3389	33285.936542757368	20.071100742256
0	3394	33360.50923753159	74.572694774222
0	3396	33372.530923026042	12.021685494452
0	3398	33378.507462591471	5.976539565429
0	3400	33384.697370102249	6.189907510778
0	3403	33406.013041175771	21.315671073522
0	3409	33428.684312588904	22.671271413133
0	3412	33443.305306181633	14.620993592729
0	3414	33446.699186926053	3.39388074442
0	3418	33473.996929639522	27.297742713469
0	3421	33550.715791131728	76.718861492206
0	3424	33581.834712061287	31.118920929559
0	3427	33655.268806746208	73.434094684921
0	3430	33778.765492839495	123.49668609329
0	3432	33790.645384248007	11.879891408512
0	3435	33817.322883974979	26.677499726972
0	3439	33835.419035094394	18.096151119415
0	3442	34025.65980277776	190.24076768337
0	3445	34089.593020834805	63.933218057045
0	3448	34376.856169324848	287.26314849004
0	3451	34448.145779458798	71.28961013395
0	3453	34466.48593010206	18.340150643262
0	3455	34479.545392094938	13.059461992878
0	3458	34501.2103375364	21.664945441462
0	3462	34525.016189490574	23.805851954174
0	3466	34622.220271978806	97.204082488232
0	3468	34655.181844233587	32.961572254781
0	3472	34699.04194426038	43.860100026793
0	3474	34703.211426756068	4.169482495688
0	3477	34733.075017141472	29.863590385404
0	3480	34766.179754668657	33.104737527185
0	3484	34897.677423313825	131.49766864517
0	3486	34916.080267503415	18.40284418959
0	3488	34916.194717713889	0.114450210474
0	3493	35013.972371368247	97.777653654358
0	3496	35041.723512224249	27.751140856002
0	3499	35134.875158479636	93.151646255387
0	3502	35149.701893839715	14.826735360079
0	3504	35156.557494615494	6.855600775779
0	3506	35164.991894480618	8.434399865124
0	3511	35183.764933443874	18.773038963256
0	3513	35183.844152046816	0.079218602942
0	3515	35184.910811883129	1.066659836313
0	3520	35213.596051572368	28.685239689239
0	3522	35220.212519597352	6.616468024984
0	3525	35242.777146770817	22.564627173465
0	3529	35341.050544117163	98.273397346346
0	3531	35356.164458983181	15.113914866018
0	3534	35365.695228572997	9.530769589816
0	3538	35449.393327895405	83.698099322408
0	3540	35452.775326741696	3.381998846291
0	3543	35464.447686293355	11.672359551659
0	3547	35515.01062102335	50.562934729995
0	3549	35518.801807416227	3.791186392877
0	3551	35531.023331369399	12.221523953172
0	3553	35543.552944170031	12.529612800632
0	3558	35579.081153492566	35.528209322535
0	3560	35579.396093190423	0.314939697857
0	3563	35600.202890856003	20.80679766558
0	3566	35608.899078363319	8.696187507316
0	3568	35620.009316126484	11.110237763165
0	3571	35634.001455748742	13.992139622258
0	3573	35634.096116937678	0.094661188936
0	3576	35654.978451519635	20.882334581957
0	3578	35657.270765268256	2.292313748621
0	3580	35667.550403374274	10.279638106018
0	3588	35746.571194962731	79.020791588457
0	3591	35749.298506522711	2.72731155998
0	3593	35766.237060644356	16.938554121645
0	3595	35782.044648586325	15.807587941969
0	3599	35798.497970993012	16.453322406687
0	3603	35812.837173611594	14.339202618582
0	3605	35830.633245916494	17.7960723049
0	3607	35834.625136514445	3.991890597951
0	3612	35871.157324079868	36.532187565423
0	3614	35884.02539372377	12.868069643902
0	3619	35919.362790004692	35.337396280922
0	3622	35999.103352655034	79.740562650342
0	3624	36023.287631694453	24.184279039419
0	3628	36118.592110554853	95.3044788604
0	3630	36132.578666277239	13.986555722386
0	3633	36139.55057292332	6.971906646081
0	3635	36141.747464646399	2.196891723079
0	3639	36163.199193015067	21.451728368668
0	3643	36220.2727999066	57.073606891533
0	3645	36238.921631530155	18.648831623555
0	3648	36250.99080684347	12.069175313315
0	3651	36281.817896334588	30.827089491118
0	3654	36315.745620195339	33.927723860751
0	3658	36324.611381578759	8.86576138342
0	3660	36356.115230882884	31.503849304125
0	3664	36400.825554980454	44.71032409757
0	3667	36421.94255753177	21.117002551316
0	3669	36425.757889104911	3.815331573141
0	3672	36434.424844495125	8.666955390214
0	3676	36497.996539718448	63.571695223323
0	3678	36515.253512351621	17.256972633173
0	3682	36570.099712294313	54.846199942692
0	3684	36571.013196630722	0.913484336409
0	3686	36576.461900727345	5.448704096623
0	3690	36606.118992962339	29.657092234994
0	3692	36615.082672387668	8.963679425329
0	3694	36629.93470792487	14.852035537202
0	3698	36651.817880420968	21.883172496098
0	3700	36654.680302158305	2.862421737337
0	3705	36786.796565294825	132.11626313652
0	3708	36793.818511049042	7.021945754217
0	3712	36887.001874355185	93.183363306143
0	3715	36999.834998005154	112.83312364997
0	3718	37045.965880082324	46.13088207717
0	3721	37075.777904852192	29.812024769868
0	3724	37209.70984436362	133.93193951143
0	3727	37213.623059137709	3.913214774089
0	3730	37276.208300335675	62.585241197966
0	3732	37282.048113174591	5.839812838916
0	3736	37377.987371668662	95.939258494071
0	3738	37392.813284275613	14.825912606951
0	3742	37417.402443104895	24.589158829282
0	3744	37420.469450393627	3.067007288732
0	3747	37431.544116372762	11.074665979135
0	3751	37498.519142819663	66.975026446901
0	3753	37550.066453580531	51.547310760868
0	3755	37562.477158722558	12.410705142027
0	3757	37564.259068211574	1.781909489016
0	3761	37606.11304174017	41.853973528596
0	3763	37614.479628851828	8.366587111658
0	3769	37649.425344153117	34.945715301289
0	3772	37656.72060793191	7.295263778793
0	3775	37712.270525078291	55.549917146381
0	3778	37726.539813627006	14.269288548715
0	3781	37750.192792303628	23.652978676622
0	3784	37827.917652188728	77.7248598851
0	3787	37861.92117120988	34.003519021152
0	3789	37907.934471413536	46.013300203656
0	3791	37926.860292635372	18.925821221836
0	3794	37934.030641452518	7.170348817146
0	3796	37938.808254067048	4.77761261453
0	3800	37978.894488955202	40.086234888154
0	3803	37995.891579835258	16.997090880056
0	3808	38037.113504023091	41.221924187833
0	3810	38038.48110610377	1.367602080679
0	3813	38061.79353589645	23.31242979268
0	3816	38065.611015445045	3.817479548595
0	3818	38067.878690688614	2.267675243569
0	3820	38071.796281009947	3.917590321333
0	3824	38105.639314257812	33.843033247865
0	3828	38128.624434946442	22.98512068863
0	3831	38147.757983229535	19.133548283093
0	3835	38170.021409339645	22.26342611011
0	3837	38176.706338377625	6.68492903798
0	3840	38245.289859305475	68.58352092785
0	3842	38247.895685125936	2.605825820461
0	3847	38338.010419109108	90.114733983172
0	3850	38387.991628002389	49.981208893281
0	3852	38426.675307892523	38.683679890134
0	3856	38432.811068761482	6.135760868959
0	3859	38544.542402158859	111.73133339738
0	3861	38559.081225532359	14.5388233735
0	3864	38574.077391400082	14.996165867723
0	3867	38583.062799015791	8.985407615709
0	3869	38585.001027540108	1.938228524317
0	3873	38614.719523043484	29.718495503376
0	3877	38653.815607826217	39.096084782733
0	3879	38666.957242292118	13.141634465901
0	3883	38706.697078296383	39.739836004265
0	3886	38796.12825634701	89.431178050627
0	3888	38803.087780349417	6.959524002407
0	3890	38859.686077454421	56.598297105004
0	3892	38863.902694296025	4.216616841604
0	3898	38916.725703759815	52.82300946379
0	3901	38920.423492630075	3.69778887026
0	3904	38950.804360164663	30.380867534588
0	3907	38973.373701576349	22.569341411686
0	3909	38977.545444166854	4.171742590505
0	3913	39054.087858119421	76.542413952567
0	3915	39145.903540781308	91.815682661887
0	3918	39166.423177721513	20.519636940205
0	3920	39167.800443007765	1.377265286252
0	3922	39176.40202724189	8.601584234125
0	3926	39184.704828836278	8.302801594388
0	3929	39190.220855262026	5.516026425748
0	3933	39219.631693916742	29.410838654716
0	3935	39249.326293569103	29.694599652361
0	3940	39331.816915741939	82.490622172836
0	3943	39365.915326066917	34.098410324978
0	3945	39367.666618795803	1.751292728886
0	3949	39431.538883193697	63.872264397894
0	3952	39484.508051238866	52.969168045169
0	3955	39522.502871813242	37.994820574376
0	3957	39541.618500926435	19.115629113193
0	3959	39555.329490654923	13.710989728488
0	3964	39584.957055947928	29.627565293005
0	3967	39605.742712604685	20.785656656757
0	3969	39611.627493181218	5.884780576533
0	3973	39658.693059639888	47.06556645867
0	3976	39691.283978917896	32.590919278008
0	3978	39695.789051194699	4.505072276803
0	3982	39758.507424848394	62.718373653695
0	3985	39907.539262996041	149.03183814765
0	3988	39928.188712356632	20.649449360591
0	3990	39940.62012173141	12.431409374778
0	3994	39994.824263677042	54.204141945632
0	3996	39998.439349576966	3.615085899924
0	3999	40012.61575984532	14.176410268354
0	4003	40042.156692318812	29.540932473492
0	4006	40070.915937199313	28.759244880501
0	4008	40072.415795465858	1.499858266545
0	4012	40111.939992912237	39.524197446379
0	4014	40122.463448206137	10.5234552939
0	4017	40135.858669947763	13.395221741626
0	4021	40167.711670830626	31.853000882863
0	4023	40204.490344056818	36.778673226192
0	4027	40324.354010571387	119.86366651457
0	4029	40332.702828764808	8.348818193421
0	4031	40346.628801804376	13.925973039568
0	4034	40385.387310809421	38.758509005045
0	4039	40470.132561126882	84.745250317461
0	4041	40516.914656519613	46.782095392731
0	4044	40562.359495253242	45.444838733629
0	4048	40661.459958668954	99.100463415712
0	4051	40759.658005604734	98.19804693578
0	4053	40770.883729729997	11.225724125263
0	4055	40772.059739876063	1.176010146066
0	4057	40774.356242700961	2.296502824898
0	4063	40845.054185442718	70.697942741757
0	4065	40851.003506028404	5.949320585686
0	4067	40858.276281891287	7.272775862883
0	4072	40931.032861957586	72.756580066299
0	4074	40942.222240520851	11.189378563265
0	4077	40972.067862230758	29.845621709907
0	4079	40994.014266012896	21.946403782138
0	4083	41003.593865707305	9.579599694409
0	4085	41006.892217433225	3.29835172592
0	4090	41055.874722426627	48.982504993402
0	4093	41071.902819829401	16.028097402774
0	4095	41090.172527811842	18.269707982441
0	4098	41120.480240002252	30.30771219041
0	4102	41193.284234530632	72.80399452838
0	4105	41208.637994121843	15.353759591211
0	4108	41301.111820939301	92.473826817458
0	4111	41461.398500870991	160.28667993169
0	4113	41505.040233208409	43.641732337418
0	4116	41529.986239550096	24.946006341687
0	4118	41540.753704664671	10.767465114575
0	4121	41569.437444368963	28.683739704292
0	4124	41580.306177959961	10.868733590998
0	4126	41586.751179556631	6.44500159667
0	4130	41594.138903612403	7.387724055772
0	4132	41607.645690321953	13.50678670955
0	4135	41612.56154411333	4.915853791377
0	4137	41614.244655199658	1.683111086328
0	4139	41615.610327724775	1.365672525117
0	4141	41624.444685216239	8.834357491464
0	4150	41771.631729729188	147.18704451295
0	4152	41775.946349109296	4.314619380108
0	4155	41790.144117011371	14.197767902075
0	4158	41803.986202441196	13.842085429825
0	4161	41810.006949025314	6.020746584118
0	4164	41821.483740988227	11.476791962913
0	4167	41825.902290882022	4.418549893795
0	4169	41836.758513877736	10.856222995714
0	4172	41872.682217288163	35.923703410427
0	4175	41876.775680819236	4.093463531073
0	4179	41951.007051466252	74.231370647016
0	4181	41951.469318477764	0.462267011512
0	4185	41976.03249880754	24.563180329776
0	4188	41993.02067645834	16.9881776508
0	4192	42076.904282794297	83.883606335957
0	4195	42087.638295190705	10.734012396408
0	4197	42106.058165214492	18.419870023787
0	4200	42148.296842910972	42.23867769648
0	4203	42170.702258038202	22.40541512723
0	4206	42197.50842075094	26.806162712738
0	4209	42213.62553744063	16.11711668969
0	4212	42229.00018757895	15.37465013832
0	4215	42262.861953085828	33.861765506878
0	4218	42272.308366980142	9.446413894314
0	4220	42294.813754465221	22.505387485079
0	4223	42311.300631785056	16.486877319835
0	4228	42383.423909745674	72.123277960618
0	4230	42397.402694408274	13.9787846626
0	4232	42398.860857209855	1.458162801581
0	4236	42448.133200228945	49.27234301909
0	4240	42525.989972249678	77.856772020733
0	4243	42552.483377763018	26.49340551334
0	4245	42553.34443682949	0.861059066472
0	4247	42563.09244527185	9.74800844236
0	4252	42621.186129696127	58.093684424277
0	4254	42637.25473976743	16.068610071303
0	4258	42829.796226378529	192.5414866111
0	4261	42869.431464908107	39.635238529578
0	4263	42874.648131399829	5.216666491722
0	4265	42876.39221595997	1.744084560141
0	4267	42883.517673018577	7.125457058607
0	4273	42929.723491468363	46.205818449786
0	4275	42936.665338232975	6.941846764612
0	4277	42944.354555772567	7.689217539592
0	4282	43039.735064893195	95.380509120628
0	4284	43041.593572095608	1.858507202413
0	4286	43053.331931707509	11.738359611901
0	4289	43070.197858675646	16.865926968137
0	4293	43108.467414080201	38.269555404555
0	4296	43112.201924456604	3.734510376403
1	1	7	0
1	3	28.677528091033	0
1	5	49.379620329226	0
1	7	52.297471187211	0
1	11	80.783801111556	0
1	16	127.067813038131	0
1	19	164.019665518709	0
1	21	179.777077380331	0
1	23	181.458028662432	0
1	27	228.827112876207	0
1	31	288.925039906375	0
1	34	296.830132704606	0
1	36	300.514003622517	0
1	39	307.617154573971	0
1	41	308.250057775641	0
1	43	316.8472140739	0
1	48	342.055449902509	0
1	52	451.650129595198	0
1	55	463.932528941476	0
1	57	482.034411772618	0
1	60	499.85790268883	0
1	64	509.190206938964	0
1	67	587.135938943297	0
1	69	590.27748528633	0
1	72	603.260813739934	0
1	74	617.649271278216	0
1	77	634.566218529629	0
1	80	657.576677297831	0
1	83	680.792710571959	0
1	85	689.394987079313	0
1	87	696.322208032717	0
1	93	719.772711325235	0
1	95	723.925038178177	0
1	100	776.683842186967	0
1	103	829.329463597367	0
1	105	834.074664566742	0
1	108	850.548943747832	0
1	110	875.66591637527	0
1	113	876.048219436988	0
1	116	893.174361834639	0
1	118	894.600217828674	0
1	121	902.954679020584	0
1	125	908.015711572851	0
1	130	1036.284888138196	0
1	133	1074.882522995279	0
1	135	1081.544990400262	0
1	139	1216.660449871917	0
1	141	1218.25993236668	0
1	144	1255.196052762166	0
1	147	1288.622782296746	0
1	149	1322.646425326564	0
1	151	1331.493073673495	0
1	153	1332.417081979677	0
1	155	1342.801553368529	0
1	160	1358.986873264981	0
1	163	1376.669502921594	0
1	168	1441.985712686027	0
1	170	1443.342199483038	0
1	173	1450.815117599817	0
1	178	1583.392562275861	0
1	181	1649.230499677546	0
1	183	1655.733712255081	0
1	186	1666.464513496707	0
1	188	1684.517184634224	0
1	191	1701.4276726685	0
1	196	1780.27746127925	0
1	198	1807.601375929907	0
1	200	1835.590727925994	0
1	202	1838.542707888095	0
1	208	1923.556905683919	0
1	210	1929.693238809281	0
1	212	1941.059007702262	0
1	216	1993.994207341715	0
1	219	2005.016712374013	0
1	221	2006.413783131428	0
1	224	2043.731946860644	0
1	226	2045.300471520202	0
1	230	2054.942114637536	0
1	232	2087.346896532712	0
1	236	2122.269436501503	0
1	241	2135.364039636786	0
1	243	2157.892320388492	0
1	245	2169.859635745673	0
1	248	2197.862198312333	0
1	252	2220.014572671209	0
1	256	2369.097390550996	0
1	259	2456.155138846988	0
1	261	2472.274009956425	0
1	263	2483.705484206635	0
1	268	2586.951435538741	0
1	271	2601.671051508114	0
1	273	2602.455905762551	0
1	275	2610.25713301797	0
1	277	2611.265504710754	0
1	282	2680.18878586155	0
1	285	2721.472982470839	0
1	287	2728.948636895495	0
1	290	2738.947879071752	0
1	293	2746.701626359158	0
1	297	2754.922523950092	0
1	301	2818.895997707938	0
1	304	2900.899692500559	0
1	307	2937.570221861358	0
1	310	2961.122653746662	0
1	313	3010.290193596594	0
1	316	3159.36996213133	0
1	318	3182.807436162193	0
1	320	3194.432274166573	0
1	322	3207.865772276901	0
1	326	3218.743430752746	0
1	330	3278.68141785604	0
1	332	3287.19346886456	0
1	336	3336.592921755227	0
1	339	3363.087272669598	0
1	341	3383.181798073516	0
1	345	3411.644248793461	0
1	349	3440.751592626977	0
1	352	3504.6658175833	0
1	354	3506.665902715104	0
1	357	3544.096305718609	0
1	361	3617.31174243749	0
1	364	3623.999096913491	0
1	367	3719.253070486855	0
1	370	3738.429769425345	0
1	372	3749.990542845865	0
1	375	3765.453446329539	0
1	379	3869.510250771076	0
1	381	3872.65447326052	0
1	385	3904.161970070743	0
1	388	3940.692259411104	0
1	391	3956.608276449127	0
1	393	4002.954731436308	0
1	396	4007.897875641719	0
1	400	4100.527195881756	0
1	402	4193.669293052384	0
1	404	4199.090307080103	0
1	409	4214.761312632735	0
1	412	4222.01794425953	0
1	415	4255.197938146757	0
1	418	4313.718323078597	0
1	420	4341.559943868552	0
1	422	4347.046150384226	0
1	427	4555.292283954846	0
1	430	4612.618675476933	0
1	432	4619.21515698246	0
1	435	4649.556185666367	0
1	437	4665.042634874425	0
1	439	4671.943291395155	0
1	445	4701.450093109967	0
1	447	4722.312375580748	0
1	449	4739.400329701023	0
1	452	4751.40338849506	0
1	455	4762.037437641999	0
1	459	4785.435236006442	0
1	462	4813.90499323276	0
1	466	4846.674011245809	0
1	469	4873.806974842015	0
1	472	4897.457052950908	0
1	475	4905.070284408511	0
1	477	4911.058473182717	0
1	479	4912.154355211987	0
1	482	4930.925797423782	0
1	484	4938.817428253989	0
1	490	4985.12567456338	0
1	493	5054.503117839351	0
1	496	5067.475538712942	0
1	498	5086.239860019594	0
1	501	5132.971654859476	0
1	505	5158.302065804147	0
1	508	5221.222537685738	0
1	511	5241.053783596641	0
1	514	5324.441950832458	0
1	516	5331.983754432222	0
1	519	5341.478689599754	0
1	523	5416.971550519526	0
1	526	5430.579598427367	0
1	528	5461.390251450542	0
1	532	5496.895287894753	0
1	534	5502.151859847202	0
1	537	5533.578150317116	0
1	540	5552.491155940881	0
1	542	5582.294719661208	0
1	547	5642.25109008333	0
1	550	5693.009123506156	0
1	552	5700.131229432152	0
1	554	5737.226735863977	0
1	557	5756.557463098216	0
1	560	5788.144748953012	0
1	562	5793.670613632126	0
1	565	5798.266395736719	0
1	571	5854.094488680821	0
1	574	5858.945110059095	0
1	576	5897.072601961802	0
1	580	5919.972294274663	0
1	583	5958.362454038663	0
1	586	5962.08736381479	0
1	589	5980.451779189644	0
1	591	5992.524524033887	0
1	593	6002.450517920232	0
1	598	6041.536205353983	0
1	600	6058.86314084197	0
1	604	6114.776588290745	0
1	606	6131.58124688393	0
1	610	6171.259142965325	0
1	613	6296.789336084514	0
1	616	6324.729355492396	0
1	618	6326.216247845274	0
1	620	6326.612779311749	0
1	624	6359.553034351044	0
1	627	6395.132486209894	0
1	630	6412.216600054453	0
1	634	6446.382100775756	0
1	636	6468.637346847881	0
1	640	6487.892988571089	0
1	642	6500.094797908408	0
1	645	6572.396181455178	0
1	648	6598.852679264784	0
1	650	6600.405866489105	0
1	655	6718.542554124483	0
1	658	6743.810612669014	0
1	660	6755.98806770831	0
1	662	6756.46585796437	0
1	665	6784.661803550461	0
1	668	6827.190372824467	0
1	673	6877.747234873243	0
1	676	6881.29313197908	0
1	678	6910.414713790326	0
1	681	6938.870055037609	0
1	683	6940.082432640281	0
1	687	6952.988548580637	0
1	690	6980.669853407751	0
1	694	7060.699032668285	0
1	696	7066.507322340355	0
1	700	7125.59770573498	0
1	702	7150.233127440134	0
1	706	7199.56846527336	0
1	709	7250.694520102712	0
1	712	7284.854445636509	0
1	714	7292.267654092137	0
1	718	7419.13191678687	0
1	721	7433.327682550957	0
1	724	7468.713100130542	0
1	727	7578.265100096078	0
1	730	7681.34547939107	0
1	732	7730.234649410529	0
1	734	7748.560118089696	0
1	736	7751.458632084198	0
1	741	7788.343381757403	0
1	743	7806.421273459421	0
1	746	7818.439219263287	0
1	751	7857.917521171121	0
1	754	7869.936368005835	0
1	757	7909.776887768722	0
1	760	8009.084190891028	0
1	763	8037.694819749327	0
1	766	8076.040971346032	0
1	768	8095.318648774023	0
1	770	8099.786793511092	0
1	774	8117.700812807331	0
1	777	8130.443562464209	0
1	779	8133.452345005381	0
1	781	8140.95643861	0
1	787	8167.798496900288	0
1	789	8175.048245196075	0
1	791	8184.862048966764	0
1	795	8203.005192065025	0
1	799	8236.34177608625	0
1	802	8271.023823099269	0
1	805	8319.400498538167	0
1	808	8327.846036702044	0
1	810	8330.547785640515	0
1	814	8364.503739431965	0
1	817	8463.538750339709	0
1	819	8465.974078144104	0
1	823	8506.940338004067	0
1	825	8509.005047920852	0
1	828	8531.806173038948	0
1	830	8551.115888296368	0
1	835	8571.918267019196	0
1	837	8595.856695998643	0
1	840	8626.969699340272	0
1	842	8630.413386114262	0
1	846	8709.90563043212	0
1	849	8735.549744528693	0
1	852	8784.835919525751	0
1	855	8833.075084296054	0
1	859	8858.555707860978	0
1	862	8881.520553100707	0
1	865	8918.02333202009	0
1	867	8918.232085662666	0
1	869	8925.398923755367	0
1	871	8926.809897405907	0
1	873	8928.995350961952	0
1	879	8942.574993382958	0
1	883	8955.500642672984	0
1	886	8995.468865605369	0
1	889	9064.303770428832	0
1	891	9078.374863448109	0
1	893	9088.067305633623	0
1	897	9110.933659512472	0
1	900	9116.330741524262	0
1	902	9116.530948604462	0
1	904	9124.622139198646	0
1	907	9148.133372710993	0
1	913	9186.429914627919	0
1	916	9197.477612322524	0
1	918	9225.886191597114	0
1	922	9288.680582524542	0
1	925	9320.192617785142	0
1	927	9350.222329167204	0
1	930	9369.582185840911	0
1	934	9392.22235114095	0
1	937	9437.732982689542	0
1	939	9460.710444425187	0
1	942	9507.872993455054	0
1	946	9631.379893491955	0
1	948	9644.716662179454	0
1	952	9696.470884146097	0
1	954	9719.075628777095	0
1	957	9740.841808519516	0
1	961	9791.388668727124	0
1	963	9797.498689272324	0
1	965	9806.114684417052	0
1	969	9836.146711744365	0
1	971	9847.37556637501	0
1	974	9850.584606340137	0
1	976	9852.919811478412	0
1	982	9926.730605229881	0
1	985	9958.387897531345	0
1	988	10041.386882117422	0
1	991	10047.707017827821	0
1	993	10087.129968904207	0
1	997	10168.633851347973	0
1	1000	10176.79231920316	0
1	1003	10216.697360631881	0
1	1005	10230.608216698188	0
1	1009	10288.737266016681	0
1	1012	10336.287937934124	0
1	1015	10369.51264996849	0
1	1017	10383.474931956448	0
1	1020	10408.528832891874	0
1	1022	10411.449699642075	0
1	1026	10465.981390603665	0
1	1030	10535.276153929745	0
1	1032	10546.02476645798	0
1	1036	10554.595133275338	0
1	1038	10559.332037788134	0
1	1040	10566.213920049655	0
1	1043	10570.675816658865	0
1	1048	10636.431446560044	0
1	1050	10653.438423908951	0
1	1052	10672.272358279116	0
1	1055	10701.494409741088	0
1	1059	10760.045754276454	0
1	1061	10782.028677806554	0
1	1065	10825.713561416559	0
1	1068	10832.801568722931	0
1	1070	10839.654865971976	0
1	1072	10871.503629397874	0
1	1075	10875.310157260594	0
1	1081	10930.821887536569	0
1	1083	10933.161551720576	0
1	1087	10971.086539885481	0
1	1089	10986.396497073923	0
1	1093	11020.100139410273	0
1	1095	11023.552522906063	0
1	1098	11049.651246656327	0
1	1101	11068.839162088228	0
1	1103	11085.196630046165	0
1	1106	11112.986343808796	0
1	1110	11138.551794370164	0
1	1114	11174.250893890628	0
1	1116	11181.78790227973	0
1	1119	11189.262344582212	0
1	1123	11243.882666518395	0
1	1126	11282.092650668957	0
1	1129	11293.522843694212	0
1	1131	11357.100963153491	0
1	1135	11415.640307877132	0
1	1137	11426.924338062005	0
1	1139	11430.509716671431	0
1	1141	11433.668238143887	0
1	1143	11435.766657896884	0
1	1145	11441.066747802419	0
1	1149	11456.905955996656	0
1	1151	11459.504992955152	0
1	1157	11473.359887226606	0
1	1160	11484.095571684473	0
1	1162	11487.768373841879	0
1	1165	11498.152332884428	0
1	1168	11503.319738515935	0
1	1174	11541.648722369663	0
1	1177	11585.928703594404	0
1	1180	11592.530124894639	0
1	1183	11619.010013916403	0
1	1185	11623.969434871247	0
1	1187	11626.613160123442	0
1	1192	11646.973209201122	0
1	1194	11660.751240237839	0
1	1196	11662.995746839107	0
1	1201	11710.069668532104	0
1	1203	11710.22532647213	0
1	1207	11768.829224796284	0
1	1209	11778.975577352585	0
1	1211	11796.136686817431	0
1	1216	11872.724726282836	0
1	1218	11878.067934818666	0
1	1221	11881.855600156762	0
1	1225	12005.271455631352	0
1	1227	12027.57151888873	0
1	1230	12041.74957142091	0
1	1233	12061.780300556344	0
1	1237	12215.41962088545	0
1	1240	12245.85646282079	0
1	1243	12251.732245995425	0
1	1246	12280.416628011631	0
1	1248	12320.820373378179	0
1	1250	12328.112487822021	0
1	1252	12344.40233866819	0
1	1254	12349.084204321209	0
1	1256	12351.888911010226	0
1	1260	12357.11397651118	0
1	1266	12409.681972421495	0
1	1270	12480.135331766984	0
1	1273	12557.708369079189	0
1	1275	12591.241947065741	0
1	1278	12620.47342128069	0
1	1281	12723.093024408812	0
1	1284	12740.104450909243	0
1	1287	12788.298489712539	0
1	1291	12809.343682835143	0
1	1293	12852.349110732484	0
1	1295	12854.894259317019	0
1	1298	12864.784118011977	0
1	1300	12875.177994315281	0
1	1302	12880.199759906711	0
1	1305	12891.926322861236	0
1	1310	12902.438096492822	0
1	1312	12917.487924477452	0
1	1317	12938.422732573484	0
1	1320	12957.577561726391	0
1	1322	12959.840461908467	0
1	1326	12996.412590979627	0
1	1328	13029.36109792603	0
1	1331	13049.562553007873	0
1	1335	13086.410554539501	0
1	1338	13108.247454900907	0
1	1341	13128.003626448778	0
1	1344	13140.531315926743	0
1	1347	13149.852368470453	0
1	1349	13153.910052203598	0
1	1351	13162.454120508615	0
1	1354	13189.771144715229	0
1	1359	13237.221688867901	0
1	1363	13293.813248188159	0
1	1366	13376.684711977708	0
1	1368	13386.81019109507	0
1	1372	13410.688068339469	0
1	1375	13430.176119047988	0
1	1378	13450.006062102624	0
1	1381	13466.369332877568	0
1	1383	13480.36207620677	0
1	1387	13555.867693879529	0
1	1389	13560.765112068676	0
1	1392	13591.024562840176	0
1	1395	13625.548183169198	0
1	1399	13641.122765697967	0
1	1402	13658.293885493541	0
1	1405	13681.335496760937	0
1	1408	13705.977917286254	0
1	1410	13731.050011577521	0
1	1414	13771.93120313008	0
1	1417	13808.556700509793	0
1	1420	13875.355167078924	0
1	1422	13893.859433482051	0
1	1424	13895.078428269269	0
1	1428	13914.174602279986	0
1	1431	13931.468627421258	0
1	1433	13932.723997821203	0
1	1437	13959.373947139903	0
1	1440	13961.694303551361	0
1	1442	13996.395441429725	0
1	1447	14039.263024350948	0
1	1449	14117.168102008847	0
1	1453	14139.689175129834	0
1	1456	14152.705342161306	0
1	1459	14166.690983602367	0
1	1461	14169.151484691564	0
1	1465	14211.624899986724	0
1	1467	14224.558576655008	0
1	1471	14234.583264202072	0
1	1474	14260.214094451365	0
1	1477	14348.146616188029	0
1	1480	14356.951202935856	0
1	1483	14374.844395616492	0
1	1486	14443.399950167447	0
1	1488	14447.793357046139	0
1	1492	14492.132198888807	0
1	1495	14524.556124490945	0
1	1497	14531.311311947081	0
1	1500	14542.999756850998	0
1	1503	14561.437237213433	0
1	1506	14578.479281721893	0
1	1508	14583.108937958616	0
1	1511	14592.602162844166	0
1	1514	14612.592146680972	0
1	1516	14616.3896210276	0
1	1518	14618.164674797122	0
1	1522	14627.733423785178	0
1	1528	14659.696706791296	0
1	1531	14717.81046821289	0
1	1534	14755.195263454257	0
1	1536	14762.598595132404	0
1	1539	14795.204905866452	0
1	1541	14807.929875919359	0
1	1545	14850.868905864757	0
1	1547	14861.490686271446	0
1	1550	14893.779607966593	0
1	1552	14895.632738970872	0
1	1556	14918.633127921752	0
1	1560	14939.011048971637	0
1	1562	14940.123888779519	0
1	1564	14943.854892047325	0
1	1567	14953.063106208892	0
1	1572	14978.249614624856	0
1	1576	15057.81779423164	0
1	1579	15088.903122935095	0
1	1581	15099.982083769971	0
1	1584	15110.875664381121	0
1	1587	15113.899835237444	0
1	1589	15118.746974412654	0
1	1591	15123.102167052532	0
1	1597	15167.341683773993	0
1	1599	15204.469570896047	0
1	1601	15212.632364104425	0
1	1603	15215.247754835888	0
1	1608	15248.467150856865	0
1	1610	15267.27379814675	0
1	1614	15296.340697315495	0
1	1616	15319.68076174448	0
1	1618	15344.800460280722	0
1	1622	15391.385712835192	0
1	1624	15391.585841870771	0
1	1628	15397.466408690107	0
1	1632	15427.373640242097	0
1	1636	15535.41983114854	0
1	1638	15559.514597123518	0
1	1640	15584.960396392762	0
1	1642	15588.764553545477	0
1	1648	15701.444231490446	0
1	1651	15747.118351392254	0
1	1653	15775.938841093518	0
1	1655	15777.022697693681	0
1	1659	15792.152907100658	0
1	1662	15813.34605352981	0
1	1666	15868.054692924994	0
1	1669	15938.113829237691	0
1	1671	15952.601687522766	0
1	1674	15991.548689825599	0
1	1677	16008.36320068394	0
1	1680	16050.923317558135	0
1	1683	16081.699953978607	0
1	1686	16091.329120802484	0
1	1690	16134.569789929214	0
1	1692	16143.540811589969	0
1	1696	16187.431093965487	0
1	1699	16291.183155327285	0
1	1702	16407.241770232793	0
1	1705	16428.732832080223	0
1	1708	16532.793969646024	0
1	1710	16539.269727430837	0
1	1714	16610.660766214025	0
1	1716	16617.186065136013	0
1	1719	16643.480246708521	0
1	1723	16711.052285987254	0
1	1725	16720.76301105395	0
1	1729	16746.248052128036	0
1	1732	16752.416376601726	0
1	1734	16760.189511091366	0
1	1736	16770.764920064094	0
1	1741	16802.499795770492	0
1	1744	16817.284528493767	0
1	1746	16823.067353671347	0
1	1749	16840.291207334664	0
1	1751	16858.594356974675	0
1	1756	16881.236322766619	0
1	1759	16914.411397023732	0
1	1761	16919.747032004873	0
1	1763	16940.976372046804	0
1	1767	16956.772193869439	0
1	1770	16983.334368718776	0
1	1774	17001.937937691512	0
1	1776	17031.392759948927	0
1	1779	17056.82274067848	0
1	1782	17083.8167049121	0
1	1785	17102.4646472119	0
1	1789	17244.977355082739	0
1	1792	17269.126020521061	0
1	1794	17269.685559135683	0
1	1798	17307.21265052066	0
1	1800	17328.633211703095	0
1	1802	17336.560168683243	0
1	1807	17446.972684794905	0
1	1809	17452.128978392818	0
1	1811	17457.23982829531	0
1	1813	17459.798265481938	0
1	1816	17469.305718018959	0
1	1821	17557.868843097893	0
1	1824	17567.994294796001	0
1	1826	17574.439331478523	0
1	1830	17630.930937915151	0
1	1832	17650.92001798991	0
1	1836	17674.750257152731	0
1	1838	17694.642864079469	0
1	1841	17723.02698206935	0
1	1846	17784.920309882977	0
1	1848	17790.451032435613	0
1	1850	17792.005483989703	0
1	1854	17839.05945301668	0
1	1856	17842.372074687383	0
1	1860	17864.942308991473	0
1	1864	17946.600709033172	0
1	1866	17958.886924095383	0
1	1868	17960.361187336944	0
1	1872	17977.812961453563	0
1	1874	17997.147481527981	0
1	1879	18066.711840280096	0
1	1882	18208.385068253727	0
1	1885	18243.496825612399	0
1	1887	18291.691830575441	0
1	1891	18317.686523397195	0
1	1893	18325.866350226586	0
1	1896	18366.038368139917	0
1	1898	18372.932739723267	0
1	1901	18422.882062091669	0
1	1905	18456.602831915344	0
1	1907	18477.126348402986	0
1	1910	18493.900780477985	0
1	1915	18616.933728114355	0
1	1918	18669.34598246677	0
1	1920	18702.780168069299	0
1	1923	18708.00045783722	0
1	1926	18732.210324584881	0
1	1929	18747.356707335827	0
1	1932	18788.888903536792	0
1	1934	18793.777236559333	0
1	1936	18794.669097318857	0
1	1942	18843.782885693931	0
1	1944	18854.830159818127	0
1	1947	18872.179997185497	0
1	1949	18893.084358095458	0
1	1954	18962.183942325833	0
1	1956	18966.125720784191	0
1	1959	19005.838288091345	0
1	1963	19029.260250350746	0
1	1965	19033.163027260213	0
1	1968	19043.939385338285	0
1	1971	19087.735873084578	0
1	1975	19158.037955500916	0
1	1978	19166.488182220056	0
1	1981	19255.190995414933	0
1	1984	19311.871866398717	0
1	1986	19320.434519680871	0
1	1988	19327.142559136962	0
1	1991	19335.774808571773	0
1	1994	19356.715538043754	0
1	1996	19360.486625312609	0
1	1998	19362.501068894127	0
1	2001	19378.172462419821	0
1	2006	19387.439292886517	0
1	2009	19399.705032985137	0
1	2013	19431.102999329372	0
1	2015	19441.317503579906	0
1	2019	19509.136708649161	0
1	2023	19549.774056221422	0
1	2025	19566.629442437432	0
1	2028	19569.304343103861	0
1	2030	19589.825008155706	0
1	2032	19600.63147573065	0
1	2034	19606.643365983843	0
1	2038	19627.447851376736	0
1	2043	19686.253986723371	0
1	2047	19708.759341493585	0
1	2050	19832.756065833369	0
1	2053	19926.297736428616	0
1	2056	19997.536676095094	0
1	2058	20005.169889750595	0
1	2062	20031.953496813402	0
1	2065	20085.294741060233	0
1	2067	20124.676589611511	0
1	2071	20184.038961672126	0
1	2073	20217.003292203913	0
1	2075	20224.587331915533	0
1	2077	20233.948870327013	0
1	2082	20254.66287117206	0
1	2085	20270.804177621313	0
1	2089	20338.325148908742	0
1	2092	20404.710500857905	0
1	2094	20424.846008940368	0
1	2096	20449.529288490993	0
1	2100	20517.900565806938	0
1	2104	20579.680194464123	0
1	2107	20648.115063427449	0
1	2110	20704.081747899242	0
1	2112	20725.703637393628	0
1	2115	20737.082986498664	0
1	2118	20742.29545408069	0
1	2121	20756.728493604839	0
1	2123	20758.03050639003	0
1	2128	20833.56788029484	0
1	2131	20856.819073256786	0
1	2133	20878.434757391789	0
1	2137	20969.943605149178	0
1	2139	20976.968868804518	0
1	2142	20981.847866641965	0
1	2144	20997.620361937991	0
1	2146	20997.6254924786	0
1	2149	21017.818751051378	0
1	2154	21026.24239597738	0
1	2158	21052.590371052727	0
1	2161	21085.210458179899	0
1	2164	21152.78842356896	0
1	2167	21185.81449689429	0
1	2169	21187.749015576213	0
1	2173	21322.933049770556	0
1	2176	21333.008215653997	0
1	2178	21337.295346008867	0
1	2180	21362.123301009241	0
1	2182	21364.117709663629	0
1	2186	21372.855365421903	0
1	2189	21378.301673484844	0
1	2193	21387.484671786261	0
1	2196	21430.629827211894	0
1	2199	21494.08186459149	0
1	2203	21644.158420603615	0
1	2206	21703.380825864185	0
1	2208	21723.825588053587	0
1	2212	21735.965115958967	0
1	2215	21768.013217124826	0
1	2218	21781.944413255256	0
1	2220	21786.642566004635	0
1	2222	21806.222125311439	0
1	2224	21808.252261974692	0
1	2226	21810.476232253269	0
1	2228	21810.75676666285	0
1	2234	21836.578060099506	0
1	2237	21847.488544695879	0
1	2242	21879.106457775964	0
1	2245	21921.743540325814	0
1	2247	21927.111278610601	0
1	2250	21951.601774843859	0
1	2253	22006.792871289526	0
1	2255	22009.258228956355	0
1	2258	22023.960147070594	0
1	2261	22043.599382474013	0
1	2265	22069.417166079614	0
1	2269	22097.487513424313	0
[...]
4	2152	21020.772309779006	0
4	2153	21025.267975105564	3
4	2156	21038.934381478909	0
4	2157	21039.285249513082	1
4	2160	21063.302872864688	0
4	2163	21097.589220803868	0
4	2166	21156.250811247503	0
4	2171	21258.258670971225	0
4	2172	21269.888581937328	1
4	2175	21331.433306096073	0
4	2184	21367.933558413116	3
4	2185	21370.018045861188	0
4	2188	21374.371846175812	0
4	2191	21381.111024307604	2
4	2192	21385.279900249666	0
4	2195	21405.670033663061	0
4	2198	21490.188193258125	1
4	2201	21502.3016612668	1
4	2202	21515.112634817609	0
4	2205	21648.909143469661	0
4	2210	21724.622877914025	0
4	2211	21733.059327123705	1
4	2214	21749.411267025293	0
4	2217	21768.998262344959	0
4	2230	21814.47751181085	1
4	2231	21816.312102524857	4
4	2232	21827.77416128252	5
4	2233	21834.676349802997	0
4	2236	21845.217885878468	3
4	2239	21849.600438683067	2
4	2240	21869.380419585048	0
4	2241	21876.029549962677	1
4	2244	21881.79135830663	0
4	2249	21937.803919342567	1
4	2252	21982.586314847173	0
4	2257	22009.922593906146	2
4	2260	22029.90504464521	0
4	2263	22055.285295629417	2
4	2264	22058.61716176938	0
4	2267	22074.809086719591	0
4	2268	22090.953811337021	1
4	2275	22110.814977057256	2
4	2276	22130.80530787533	0
4	2283	22151.632984357389	3
4	2284	22179.846449329513	0
4	2285	22200.894013920075	1
4	2288	22243.577548319704	0
4	2289	22266.988085292816	2
4	2292	22278.670408460114	0
4	2295	22406.858272707524	0
4	2298	22419.415572530153	0
4	2303	22437.402521760602	1
4	2310	22493.3891673259	2
4	2313	22505.576426331048	0
4	2316	22507.943724125825	2
4	2317	22513.260599073526	0
4	2320	22548.284997883687	1
4	2321	22560.73933037636	0
4	2324	22613.792050821277	3
4	2327	22641.529488014899	0
4	2330	22679.549399470421	1
4	2331	22685.20493746176	0
4	2336	22699.879694018577	1
4	2337	22718.447891752691	0
4	2340	22772.349647272016	0
4	2343	22839.903063208753	0
4	2350	22888.209631651722	2
4	2353	22898.419084467935	0
4	2354	22898.889442900325	2
4	2357	22930.156893410919	1
4	2358	22953.195939536712	0
4	2363	23011.600334816425	0
4	2364	23017.692617645463	1
4	2371	23075.792889747616	1
4	2376	23081.648069190662	1
4	2377	23094.111948845198	3
4	2378	23094.95799273077	2
4	2381	23108.364080413123	1
4	2382	23126.856243130018	0
4	2387	23203.670818008082	0
4	2390	23209.563988095992	1
4	2393	23233.119041726042	1
4	2398	23270.126684182349	2
4	2401	23310.795280200451	2
4	2402	23311.281153998622	1
4	2405	23324.514260307504	1
4	2406	23351.259044164868	0
4	2409	23390.229179722022	0
4	2412	23492.470760663165	0
4	2423	23541.787146410015	0
4	2424	23552.59859668446	1
4	2425	23568.034458113609	2
4	2426	23582.054769955394	3
4	2427	23599.417474429803	4
4	2432	23674.284139358342	0
4	2439	23699.985254447329	0
4	2440	23713.566684427181	1
4	2445	23745.82901379492	1
4	2448	23766.801842440524	2
4	2449	23776.469478453108	1
4	2450	23777.387926518438	0
4	2451	23788.991868602973	3
4	2454	23812.273990413704	0
4	2459	23848.545455228343	1
4	2460	23857.900161385798	0
4	2463	23895.499149840555	0
4	2466	23906.466154438117	0
4	2469	23946.17571537183	0
4	2474	24031.876083773133	0
4	2475	24044.561775994489	1
4	2486	24097.253361829468	0
4	2487	24111.413705745242	2
4	2490	24128.747905088391	4
4	2491	24131.512183175186	1
4	2492	24131.760684058234	3
4	2493	24161.198145196006	0
4	2496	24189.645306890703	0
4	2501	24213.249653562309	0
4	2502	24226.597437785181	1
4	2507	24259.501462768297	0
4	2508	24271.742573286465	1
4	2511	24296.409180153863	0
4	2514	24457.55486962885	0
4	2523	24547.975546437635	1
4	2524	24567.61489536164	3
4	2527	24598.339195206396	2
4	2528	24628.317564069847	1
4	2531	24639.953474173119	0
4	2534	24668.465049748563	0
4	2535	24677.168293969271	1
4	2540	24722.659797571073	1
4	2543	24727.322998316885	1
4	2546	24745.01476816546	1
4	2549	24784.623972222939	0
4	2558	24838.42430251541	4
4	2561	24843.854773918076	4
4	2562	24845.431585971868	3
4	2563	24850.318035312276	1
4	2564	24854.224674854107	0
4	2567	24864.892539906951	0
4	2570	24884.633080888886	0
4	2571	24911.197201654244	2
4	2578	24981.455913550934	1
4	2579	24990.158136934573	0
4	2580	25009.338733256392	2
4	2585	25037.187956254249	1
4	2588	25077.435966080523	1
4	2591	25107.980481826705	0
4	2592	25135.49240451802	1
4	2603	25242.309090355101	0
4	2604	25257.171872841933	1
4	2605	25265.27934692239	2
4	2608	25281.037458113891	0
4	2609	25289.708265540618	3
4	2612	25307.362232505813	0
4	2615	25318.211687395136	0
4	2616	25329.435242474829	4
4	2621	25465.799114334503	1
4	2622	25471.386415059487	0
4	2625	25524.493798285203	0
4	2630	25555.296737795469	1
4	2631	25558.336935006824	0
4	2636	25600.120883363833	1
4	2639	25617.885301015046	1
4	2640	25620.692433077435	0
4	2643	25684.302055081938	0
4	2648	25822.35355550749	1
4	2651	25837.999067785733	1
4	2652	25843.80886473207	0
4	2655	25856.358997955368	0
4	2658	25950.096992211314	0
4	2663	25977.701394180505	1
4	2664	25985.406738836651	0
4	2667	26061.329113073379	0
4	2672	26197.217223280476	1
4	2679	26241.931715286437	0
4	2682	26250.073751874882	2
4	2685	26258.716074470856	0
4	2686	26267.937725811387	1
4	2689	26274.879850054544	3
4	2694	26298.817852726027	0
4	2695	26304.339703395632	3
4	2696	26313.537015565755	1
4	2699	26334.81217565921	2
4	2702	26366.522541873382	1
4	2703	26396.992201186105	0
4	2706	26459.208967487679	0
4	2711	26579.848940651244	0
4	2716	26624.18993499875	0
4	2717	26634.199103609797	1
4	2720	26670.378410847501	2
4	2723	26692.078822351527	0
4	2728	26718.921034916523	0
4	2729	26720.827673078846	1
4	2730	26724.274724367053	2
4	2735	26776.823704723571	1
4	2736	26796.283161674556	0
4	2739	26839.318642816897	0
4	2744	26863.889871732988	0
4	2745	26867.636217694019	1
4	2748	26909.466580548235	0
4	2757	26992.835858613591	1
4	2758	27004.540752206881	3
4	2761	27013.54098741155	1
4	2762	27016.47195739924	2
4	2763	27049.894646027274	0
4	2766	27073.858988523534	0
4	2773	27154.562398898694	2
4	2774	27183.047982772607	1
4	2777	27226.49642732409	0
4	2778	27226.565883497693	1
4	2781	27243.689337392041	0
4	2784	27289.826830956646	0
4	2789	27339.106845439179	0
4	2792	27355.013807236626	1
4	2793	27372.568768635048	0
4	2796	27391.652040489423	0
4	2799	27423.406645542754	0
4	2802	27439.769361353332	0
4	2807	27451.584587480751	0
4	2810	27471.8661046286	0
4	2813	27513.616125790297	1
4	2814	27524.652264480016	0
4	2819	27553.755088565165	1
4	2822	27579.608359239563	0
4	2825	27600.595398765095	0
4	2826	27631.998777551746	1
4	2829	27682.77064288376	0
4	2832	27761.902000414275	0
4	2839	27866.790394351223	2
4	2844	27913.445730260189	0
4	2845	27921.685023267694	1
4	2846	27922.811562441655	2
4	2847	27924.3044661573	3
4	2850	27933.302437018521	0
4	2855	28000.626330372713	0
4	2860	28044.358200431203	2
4	2861	28047.725779530427	1
4	2862	28048.494366007975	0
4	2867	28155.413199839893	0
4	2868	28167.155086259596	1
4	2871	28203.486695892186	0
4	2880	28264.538862619406	2
4	2881	28272.107728243544	1
4	2884	28287.6198465208	0
4	2887	28317.42999504228	1
4	2892	28341.678266955197	3
4	2893	28342.437345409361	2
4	2894	28378.271425163315	1
4	2897	28397.217866315029	1
4	2898	28425.684875172823	0
4	2905	28479.088214470164	0
4	2906	28483.293535381923	2
4	2909	28495.296226830983	0
4	2912	28518.870162806433	1
4	2915	28528.912923851221	0
4	2916	28533.440578482834	1
4	2919	28546.497647062634	0
4	2924	28576.265579753016	0
4	2925	28588.406905866372	1
4	2928	28619.143358190848	0
4	2933	28687.914785488649	0
4	2938	28742.634405316995	0
4	2941	28767.657072563675	1
4	2942	28774.730298001483	2
4	2945	28794.637652689035	1
4	2946	28825.04059132852	0
4	2949	28840.678978092491	0
4	2954	28860.591648681637	1
4	2955	28865.956253480393	0
4	2960	28880.338966009015	1
4	2961	28903.838599681136	0
4	2966	28971.230177557794	0
4	2969	29037.532366651328	1
4	2972	29066.301325258002	1
4	2973	29074.673670198744	0
4	2976	29142.506773070941	0
4	2983	29212.876289121399	2
4	2986	29220.3522072833	1
4	2989	29228.896920944138	2
4	2990	29231.458565937497	1
4	2991	29236.269399275912	0
4	2996	29324.652508789131	0
4	2997	29351.055708488966	1
4	3002	29406.711407488668	1
4	3005	29445.916635284994	0
4	3006	29446.535175339639	1
4	3009	29473.558419056584	0
4	3014	29535.46790910088	1
4	3015	29557.221053033492	0
4	3018	29580.243581780526	0
4	3023	29647.77181130676	0
4	3026	29672.584453106008	0
4	3027	29673.743514661785	1
4	3030	29712.471119610234	0
4	3033	29756.043755529032	0
4	3044	29878.995369991896	4
4	3045	29885.051738553025	3
4	3046	29888.716701749375	0
4	3049	29898.022873029497	1
4	3050	29903.328252728485	2
4	3055	29934.112640082959	1
4	3056	29942.165785162091	2
4	3059	29957.98691891667	0
4	3060	30063.808826938524	1
4	3063	30085.786717547665	0
4	3068	30221.62787647987	0
4	3071	30257.297507702825	0
4	3074	30258.860427565454	0
4	3075	30302.453381363486	1
4	3080	30364.333164723569	1
4	3083	30409.610839480892	0
4	3088	30443.055933298779	2
4	3089	30445.398472766983	0
4	3092	30487.761806018988	0
4	3095	30497.67541798404	1
4	3098	30528.774684913861	1
4	3101	30532.943399869755	1
4	3102	30551.547949746428	0
4	3105	30556.207899833081	0
4	3110	30632.074673134658	1
4	3111	30641.32247492713	0
4	3114	30709.691930087906	0
4	3119	30713.970928859051	1
4	3120	30742.389247864764	0
4	3123	30820.294613486528	0
4	3126	30951.032055325524	0
4	3131	30974.087133617119	0
4	3138	30997.143567992582	3
4	3139	30998.578626584883	2
4	3140	31009.719561786046	1
4	3143	31018.398487578634	0
4	3144	31092.876139214704	1
4	3149	31148.679575161745	0
4	3152	31195.99974232874	0
4	3155	31210.519053085934	0
4	3156	31215.328952170985	1
4	3159	31250.17857283973	0
4	3162	31260.458849661319	0
4	3167	31331.923193710741	1
4	3168	31336.939049187517	0
4	3175	31405.156181443083	1
4	3178	31454.505274558699	0
4	3179	31455.240986794573	2
4	3182	31497.613343300467	1
4	3187	31501.845683151383	0
4	3188	31524.96443808747	1
4	3191	31535.489833783736	0
4	3194	31546.250948467943	0
4	3195	31577.531941457416	2
4	3200	31625.814784508765	1
4	3205	31658.067084453022	0
4	3206	31659.368753959304	2
4	3209	31689.830809037129	0
4	3210	31736.133234926401	1
4	3217	31815.346878012895	2
4	3218	31830.789044876595	0
4	3219	31832.949826308968	1
4	3222	31889.649475540172	0
4	3229	31922.987952671181	0
4	3232	31937.617478755406	1
4	3235	31966.319381014992	2
4	3236	31974.163513776513	0
4	3239	32018.320221705907	0
4	3248	32045.924711480807	1
4	3251	32066.75206454429	0
4	3252	32066.82062086432	3
4	3253	32085.235821243696	4
4	3256	32109.667978585557	2
4	3257	32131.671791447166	0
4	3258	32133.264181010362	1
4	3265	32200.103067857988	0
4	3266	32205.915914474905	1
4	3267	32230.524134957906	2
4	3272	32246.672869198411	1
4	3275	32276.261454818122	1
4	3280	32325.96660851082	0
4	3281	32336.895352392052	2
4	3286	32372.383272271605	1
4	3287	32402.863045977861	2
4	3292	32470.623829705748	0
4	3293	32474.898665066021	1
4	3298	32491.389553279503	0
4	3299	32507.117828678874	2
4	3302	32510.242008094872	0
4	3303	32537.092803060367	1
4	3308	32593.581266527578	0
4	3309	32600.752779747455	1
4	3316	32644.66184921734	0
4	3317	32645.815278765808	1
4	3318	32650.846266916536	2
4	3325	32719.648229000212	2
4	3326	32721.370776977964	0
4	3331	32773.761348280747	1
4	3338	32793.786823032772	2
4	3339	32796.888544499256	3
4	3344	32806.158756074967	1
4	3345	32806.761221463431	0
4	3346	32810.76406354316	2
4	3347	32817.655609004726	4
4	3352	32863.147130088872	1
4	3353	32888.216136716457	0
4	3356	32898.877918903361	0
4	3359	32931.077888570671	0
4	3360	32999.314784397735	3
4	3365	33032.456196231142	0
4	3366	33044.398800400586	1
4	3369	33156.785074922013	0
4	3372	33184.123656489057	0
4	3377	33229.359727453641	1
4	3384	33256.094047661087	0
4	3385	33261.368830633161	3
4	3388	33276.281278894617	0
4	3391	33289.652117278562	1
4	3392	33292.872412703772	2
4	3393	33300.208273948361	0
4	3402	33388.282520395709	3
4	3405	33411.525045023369	2
4	3406	33415.607500411412	0
4	3407	33418.488856485682	1
4	3408	33427.177713886892	3
4	3411	33434.308002650043	0
4	3416	33450.301697077462	0
4	3417	33473.65358086252	1
4	3420	33474.959405768724	0
4	3423	33554.060133422849	0
4	3426	33592.883741820838	0
4	3429	33665.946701237362	0
4	3434	33791.198021302859	0
4	3437	33817.792984564933	0
4	3438	33818.920008321577	1
4	3441	33852.479195857058	0
4	3444	34029.101426676885	0
4	3447	34220.12548214186	0
4	3450	34434.49397054053	0
4	3457	34482.155445555588	0
4	3460	34511.778091022807	0
4	3461	34516.318458756732	1
4	3464	34546.88139840124	2
4	3465	34584.048506478293	0
4	3470	34665.43623715167	1
4	3471	34666.111034321969	0
4	3476	34716.841613675657	0
4	3479	34753.99246468066	0
4	3482	34766.980917782238	1
4	3483	34804.820014116205	0
4	3490	34917.284071081447	1
4	3491	34927.194316716775	0
4	3492	34989.896619274895	2
4	3495	35017.647918314821	0
4	3498	35052.324541242581	0
4	3501	35139.900332240609	0
4	3508	35169.731242493174	1
4	3509	35171.804306213319	2
4	3510	35178.172384982941	0
4	3517	35186.68265899404	2
4	3518	35199.095517194767	1
4	3519	35211.423141438202	0
4	3524	35235.31687049404	0
4	3527	35242.950376545601	0
4	3528	35276.934059009774	1
4	3533	35363.421049895583	0
4	3536	35367.235222653799	1
4	3537	35376.462573467733	0
4	3542	35454.702076756828	0
4	3545	35472.892684624731	0
4	3546	35497.713517371947	1
4	3555	35552.242616571754	3
4	3556	35563.548752395045	2
4	3557	35567.266880782546	0
4	3562	35597.52192028821	0
4	3565	35603.83965967702	2
4	3570	35630.697999083347	2
4	3575	35638.072307510156	0
4	3582	35671.339819920861	2
4	3583	35681.44067999331	1
4	3584	35687.804161168888	5
4	3585	35704.817068644075	0
4	3586	35715.746396223083	6
4	3587	35725.730594442073	3
4	3590	35747.305708463113	4
4	3597	35785.449334013969	2
4	3598	35787.764135806726	3
4	3601	35802.532527051199	0
4	3602	35806.774665786962	1
4	3609	35838.883963172926	0
4	3610	35842.567959727018	3
4	3611	35853.699671610495	2
4	3616	35887.024862028502	1
4	3617	35887.457330838115	2
4	3618	35902.044346325044	0
4	3621	35920.163605643144	0
4	3626	36023.626131050434	1
4	3627	36101.282383129625	0
4	3632	36137.483871327746	0
4	3637	36146.480440944275	1
4	3638	36158.821323075106	2
4	3641	36176.281829627646	0
4	3642	36187.784476794805	1
4	3647	36240.266229557947	0
4	3650	36253.612094010651	1
4	3653	36299.424653007992	0
4	3656	36316.238596429289	1
4	3657	36320.421579025743	0
4	3662	36370.554945932385	1
4	3663	36385.776209731929	0
4	3666	36415.496894282278	0
4	3671	36428.210005428613	0
4	3674	36446.051612495114	1
4	3675	36452.30116683644	0
4	3680	36531.373380472285	1
4	3681	36547.743035397174	0
4	3688	36581.755776818234	2
4	3689	36585.678952760388	1
4	3696	36642.039569544893	2
4	3697	36644.062695636947	1
4	3702	36671.27794407058	3
4	3703	36687.527879586528	0
4	3704	36738.777502320184	2
4	3707	36787.481111107692	0
4	3710	36795.590746603495	0
4	3711	36871.038773226661	1
4	3714	36892.938407117695	0
4	3717	37009.848319987815	0
4	3720	37066.627834007513	0
4	3723	37156.209411659189	0
4	3726	37210.396316228856	0
4	3729	37214.411727401342	0
4	3734	37286.489560414145	0
4	3735	37296.02582095497	1
4	3740	37405.111649169942	1
4	3741	37406.53384630752	0
4	3746	37427.608890976837	1
4	3749	37444.512727119245	1
4	3750	37457.113964168028	0
4	3759	37571.430249866537	3
4	3760	37581.415197288161	2
4	3765	37615.84895671655	2
4	3766	37621.671023520772	1
4	3767	37621.855089833565	0
4	3768	37637.121415614861	3
4	3771	37654.658533905124	0
4	3774	37703.086450945699	0
4	3777	37720.130983354334	0
4	3780	37726.769916706892	0
4	3783	37782.680278943389	0
4	3786	37832.299029871683	0
4	3793	37933.128070960686	0
4	3798	37950.13453338318	3
4	3799	37960.218260446308	1
4	3802	37991.328741389304	1
4	3805	38002.247001092781	0
4	3806	38005.699444266485	2
4	3807	38011.56577788272	1
4	3812	38046.681380266701	0
4	3815	38064.394416218014	1
4	3822	38075.927853673615	0
4	3823	38076.731056677066	3
4	3826	38108.709422163914	0
4	3827	38110.719638324466	1
4	3830	38136.32224503839	2
4	3833	38156.996307595055	0
4	3834	38165.86047078257	1
4	3839	38187.719898739175	1
4	3844	38248.61244012441	2
4	3845	38275.463535539527	1
4	3846	38276.756960270452	0
4	3849	38364.944967953087	0
4	3854	38429.539191969522	0
4	3855	38429.822458961976	1
4	3858	38442.276375633864	0
4	3863	38565.203446924588	1
4	3866	38582.745080903366	1
4	3871	38603.32821611699	2
4	3872	38605.511194876152	1
4	3875	38616.073996329983	0
4	3876	38639.745340308934	1
4	3881	38682.766618706587	0
4	3882	38692.771492581002	1
4	3885	38714.016537302292	0
4	3894	38874.29615081962	2
4	3895	38895.280657055177	3
4	3896	38897.254462571933	0
4	3897	38904.247522123893	1
4	3900	38918.012474931087	0
4	3903	38932.766162720829	0
4	3906	38953.42911443086	0
4	3911	38980.416695927381	0
4	3912	38990.860886332272	1
4	3917	39152.993684774428	0
4	3924	39178.61391609793	2
4	3925	39182.399785065949	0
4	3928	39190.128863014206	1
4	3931	39194.82111080691	1
4	3932	39217.60613335515	3
4	3937	39277.957356146697	2
4	3938	39292.25916222627	0
4	3939	39301.049360402134	1
4	3942	39357.296137655747	0
4	3947	39368.375819521094	0
4	3948	39384.230018829055	1
4	3951	39431.909193666956	0
4	3954	39517.316972179473	0
4	3961	39560.522734621493	1
4	3962	39567.958790266149	2
4	3963	39574.943254896159	0
4	3966	39589.29145416987	0
4	3971	39616.299261142664	0
4	3972	39631.270845065688	1
4	3975	39667.319429591082	0
4	3980	39699.928555717825	0
4	3981	39708.864648254073	1
4	3984	39760.901296780635	0
4	3987	39907.795603736619	0
4	3992	39958.595505123211	0
4	3993	39981.727655104776	1
4	3998	40011.204517190083	1
4	4001	40018.970068503969	1
4	4002	40022.792321270077	0
4	4005	40066.600368580417	0
4	4010	40083.379309532251	0
4	4011	40096.72401875108	1
4	4016	40131.072719160131	0
4	4019	40137.575241945247	0
4	4020	40160.24682549759	1
4	4025	40206.387266596368	0
4	4026	40211.163642826561	1
4	4033	40349.25871236759	0
4	4036	40385.874638631812	2
4	4037	40395.11026823481	1
4	4038	40398.056588262061	0
4	4043	40522.439782267212	1
4	4046	40578.785022960948	0
4	4047	40580.005189923341	1
4	4050	40671.92229103919	0
4	4059	40780.041250484634	0
4	4060	40798.479041398376	2
4	4061	40811.900851753709	1
4	4062	40815.66237901298	3
4	4069	40863.221263936284	0
4	4070	40869.529464289368	1
4	4071	40884.129897705067	2
4	4076	40962.052619351728	1
4	4081	40997.806364099273	0
4	4082	41000.566074342858	2
4	4087	41022.124537490992	0
4	4088	41022.93447389468	2
4	4089	41026.261888340339	1
4	4092	41056.141368458932	0
4	4097	41118.998235989389	0
4	4100	41123.938406043985	0
4	4101	41138.510557544562	1
4	4104	41197.200636346587	0
4	4107	41253.854340032814	0
4	4110	41303.449070048972	0
4	4115	41509.857830083969	1
4	4120	41569.065326088807	0
4	4123	41580.264340800973	0
4	4128	41590.615974691947	0
4	4129	41591.179059443851	1
4	4134	41610.698038356679	1
4	4143	41625.588341045647	0
4	4144	41630.712466454764	2
4	4145	41640.116204373509	1
4	4146	41651.373435481838	4
4	4147	41659.06954683506	5
4	4148	41665.330896225525	6
4	4149	41687.880419815061	3
4	4154	41776.828095890161	0
4	4157	41790.535588940528	1
4	4160	41804.192418875509	0
4	4163	41816.853504356623	1
4	4166	41823.048496555911	0
4	4171	41857.190853018754	2
4	4174	41874.383212943335	1
4	4177	41879.681448695023	2
4	4178	41881.190933365916	0
4	4183	41952.283631513279	0
4	4184	41961.166931975101	2
4	4187	41989.995333751031	0
4	4190	41996.826115453658	1
4	4191	42074.670656572995	0
4	4194	42081.283434380483	0
4	4199	42141.175404579419	0
4	4202	42162.112237115061	1
4	4205	42178.21706818613	1
4	4208	42199.534790200592	1
4	4211	42227.137607834868	1
4	4214	42255.508359874944	0
4	4217	42265.891035153041	1
4	4222	42301.543444806672	1
4	4225	42315.671955026957	2
4	4226	42342.783407838625	1
4	4227	42366.991595192585	0
4	4234	42404.82127907547	2
4	4235	42406.826713794369	1
4	4238	42452.112637217603	1
4	4239	42501.121360594465	0
4	4242	42542.178356589271	0
4	4249	42565.505930051666	0
4	4250	42574.60081291035	1
4	4251	42597.67269059953	2
4	4256	42640.270762682342	0
4	4257	42654.671409479462	1
4	4260	42853.915778952491	0
4	4269	42893.291445222537	1
4	4270	42897.478418209684	3
4	4271	42900.455470171325	2
4	4272	42926.371988327792	0
4	4279	42961.092495329706	0
4	4280	42967.728739196535	1
4	4281	42974.47754664107	2
4	4288	43057.17880968918	2
4	4291	43089.724293760835	2
4	4292	43096.991337965506	0
4	4295	43111.531616642478	0
4	4298	43112.472219203233	1

