version 2
run General-4-20180202-18:51:48-908
attr configname General
attr datetime 20180202-18:51:48
attr experiment General
attr inifile carrefour.ini
attr iterationvars $0=10
attr iterationvarsf 10-
attr measurement $0=10
attr network Carrefour
attr processid 908
attr repetition 0
attr replication #0
attr resultdir results
attr runnumber 4
attr seedset 4
param **.lambda 10
param **.numeroCasse 10
param **.mu 30
param **.tipoSimulazione 0
param **.delay 0
param **.ServiceType 0

vector 0 Carrefour.coda 1_Lambda:vector ETV
attr source Interarrivals
attr title "1/lambda, vector"
vector 1 Carrefour.coda E_Nq:vector ETV
attr source QueueLenght
attr title "E[Nq], vector"
vector 2 Carrefour.coda E_W:vector ETV
attr source Queuing
attr title "E[W], vector"
vector 3 Carrefour.decisore E_R:vector ETV
attr source TotalTime
attr title "E[R], vector"
vector 4 Carrefour.decisore ActiveTillStat:vector ETV
attr source ActiveTill
attr title "Active Till, vector"
0	1	7	7
0	3	8.872257449473	1.872257449473
0	5	11.294872031601	2.422614582128
0	7	12.765627131505	1.470755099904
0	9	13.73174749653	0.966120365025
0	11	18.014030971123	4.282283474593
0	17	35.04413178474	17.030100813617
0	21	41.938297366572	6.894165581832
0	23	51.170682253284	9.232384886712
0	27	62.576353928352	11.405671675068
0	31	100.666909238949	38.090555310597
0	34	108.248497038095	7.581587799146
0	36	109.786972179354	1.538475141259
0	38	116.195768184409	6.408796005055
0	40	123.805831223474	7.610063039065
0	42	130.633660177686	6.827828954212
0	46	139.519086685393	8.885426507707
0	49	151.410400642719	11.891313957326
0	51	154.264195611131	2.853794968412
0	54	159.154841019969	4.890645408838
0	58	172.379052736245	13.224211716276
0	63	213.872269577365	41.49321684112
0	65	216.568804764973	2.696535187608
0	70	227.824174989293	11.25537022432
0	72	235.427316574387	7.603141585094
0	75	242.593942363336	7.166625788949
0	77	244.44014317668	1.846200813344
0	79	250.572432285804	6.132289109124
0	81	252.218062679983	1.645630394179
0	83	253.07430022394	0.856237543957
0	85	254.380868839881	1.306568615941
0	89	258.329687754336	3.948818914455
0	92	264.694559240579	6.364871486243
0	95	265.758643512084	1.064084271505
0	100	278.831001668746	13.072358156662
0	106	331.967395318216	53.13639364947
0	108	337.928202643878	5.960807325662
0	110	353.196574730659	15.268372086781
0	112	356.412920934145	3.216346203486
0	114	360.677655488806	4.264734554661
0	116	373.542485216995	12.864829728189
0	118	373.547963573945	0.00547835695
0	122	390.341158264619	16.793194690674
0	125	395.852544216032	5.511385951413
0	130	407.055537870243	11.202993654211
0	134	411.381423691556	4.325885821313
0	137	420.836462511751	9.455038820195
0	140	432.840366678058	12.003904166307
0	142	433.62870655991	0.788339881852
0	144	435.574557628019	1.945851068109
0	146	437.453536852897	1.878979224878
0	152	449.761764114351	12.308227261454
0	154	451.410233599707	1.648469485356
0	159	471.23669695324	19.826463353533
0	162	476.580832716547	5.344135763307
0	164	493.26048554005	16.679652823503
0	166	500.87648678111	7.61600124106
0	168	503.167899707884	2.291412926774
0	173	529.18340047326	26.015500765376
0	175	529.743874946241	0.560474472981
0	178	540.677305564906	10.933430618665
0	182	554.586932858206	13.9096272933
0	185	565.79719884535	11.210265987144
0	189	589.825042947181	24.027844101831
0	191	595.011322040056	5.186279092875
0	193	598.479950398771	3.468628358715
0	196	609.270401143276	10.790450744505
0	200	624.020824384477	14.750423241201
0	203	637.338746693633	13.317922309156
0	205	639.888656243482	2.549909549849
0	207	640.553912897387	0.665256653905
0	209	640.560288484294	0.006375586907
0	211	641.367984317411	0.807695833117
0	214	647.201177278301	5.83319296089
0	218	653.797388051785	6.596210773484
0	220	669.115307949663	15.317919897878
0	225	678.88995271214	9.774644762477
0	227	680.638217131975	1.748264419835
0	229	682.852073509338	2.213856377363
0	231	693.060903782377	10.208830273039
0	233	693.348269174748	0.287365392371
0	237	697.252535360825	3.904266186077
0	239	698.663630120712	1.411094759887
0	241	703.80875147477	5.145121354058
0	244	711.588319640821	7.779568166051
0	249	733.956133852344	22.367814211523
0	251	735.354472193791	1.398338341447
0	254	740.46843660589	5.113964412099
0	259	754.633742131371	14.165305525481
0	261	758.563958880306	3.930216748935
0	267	785.095145511751	26.531186631445
0	270	796.476812020644	11.381666508893
0	276	804.562587186014	8.08577516537
0	279	821.96653269734	17.403945511326
0	281	827.571693238303	5.605160540963
0	284	840.63943123313	13.067737994827
0	289	861.356303903415	20.716872670285
0	291	879.650940144558	18.294636241143
0	293	882.883841629629	3.232901485071
0	295	888.166132226398	5.282290596769
0	299	906.912148993359	18.746016766961
0	304	923.212010067986	16.299861074627
0	306	934.168757000598	10.956746932612
0	309	952.597205692868	18.42844869227
0	311	952.627481818455	0.030276125587
0	315	960.630307401557	8.002825583102
0	318	970.254399008703	9.624091607146
0	321	975.977923607017	5.723524598314
0	323	977.169603272574	1.191679665557
0	328	999.435767880709	22.266164608135
0	331	1019.947747112205	20.511979231496
0	333	1019.976125540382	0.028378428177
0	335	1020.159795355789	0.183669815407
0	338	1022.323494121802	2.163698766013
0	340	1024.638023943884	2.314529822082
0	344	1052.01233849535	27.374314551466
0	346	1055.690264824336	3.677926328986
0	348	1057.081860004919	1.391595180583
0	353	1073.949069502813	16.867209497894
0	356	1080.381071060862	6.432001558049
0	360	1093.196739672028	12.815668611166
0	362	1109.005204138937	15.808464466909
0	364	1109.90653031642	0.901326177483
0	368	1120.735990449731	10.829460133311
0	370	1127.020346049342	6.284355599611
0	373	1129.914132737521	2.893786688179
0	375	1143.706342507031	13.79220976951
0	382	1172.767144823404	29.060802316373
0	385	1175.082968221969	2.315823398565
0	387	1176.567025250874	1.484057028905
0	389	1177.420536557815	0.853511306941
0	393	1221.560811982105	44.14027542429
0	395	1229.464942648087	7.904130665982
0	399	1249.806843950454	20.341901302367
0	401	1258.72469307017	8.917849119716
0	405	1284.640175669562	25.915482599392
0	408	1289.75519119871	5.115015529148
0	411	1300.586005568453	10.830814369743
0	414	1303.961524834308	3.375519265855
0	417	1314.326743018249	10.365218183941
0	419	1319.400027459016	5.073284440767
0	421	1319.505591067831	0.105563608815
0	424	1322.954339375541	3.44874830771
0	428	1327.504114988532	4.549775612991
0	433	1347.146647929475	19.642532940943
0	436	1353.51986258492	6.373214655445
0	438	1357.495717385037	3.975854800117
0	441	1369.624490364878	12.128772979841
0	443	1383.042214770812	13.417724405934
0	445	1385.732574812447	2.690360041635
0	447	1389.296846822264	3.564272009817
0	454	1407.686060954464	18.3892141322
0	457	1447.648198609621	39.962137655157
0	460	1478.232409031898	30.584210422277
0	462	1482.277979053082	4.045570021184
0	465	1487.017054023935	4.739074970853
0	467	1489.00511026581	1.988056241875
0	469	1489.129280169107	0.124169903297
0	471	1492.383284543853	3.254004374746
0	473	1493.102610732323	0.71932618847
0	478	1510.776377862774	17.673767130451
0	481	1529.669913886501	18.893536023727
0	484	1531.736209581234	2.066295694733
0	488	1544.101022666567	12.364813085333
0	492	1552.50023573332	8.399213066753
0	495	1559.305222858876	6.804987125556
0	497	1564.15704644998	4.851823591104
0	500	1582.578071164968	18.421024714988
0	504	1595.753287201314	13.175216036346
0	506	1615.686238996487	19.932951795173
0	509	1627.872358785099	12.186119788612
0	511	1632.265772274262	4.393413489163
0	515	1649.559685207247	17.293912932985
0	517	1653.388802423701	3.829117216454
0	520	1668.308596814364	14.919794390663
0	523	1672.831596702796	4.522999888432
0	526	1677.817261552926	4.98566485013
0	528	1678.685657981928	0.868396429002
0	531	1687.869001979046	9.183343997118
0	535	1697.536404279368	9.667402300322
0	538	1699.243299207908	1.70689492854
0	541	1702.622740397506	3.379441189598
0	543	1707.479871508678	4.857131111172
0	545	1713.582468771956	6.102597263278
0	547	1713.661055843685	0.078587071729
0	551	1731.936590027084	18.275534183399
0	553	1734.448910016952	2.512319989868
0	555	1746.290431387555	11.841521370603
0	559	1762.206510586781	15.916079199226
0	566	1780.890476493108	18.683965906327
0	568	1787.851972315335	6.961495822227
0	570	1791.176057531972	3.324085216637
0	572	1791.750547190497	0.574489658525
0	577	1812.317735995703	20.567188805206
0	579	1813.731328745103	1.4135927494
0	583	1821.423771919226	7.692443174123
0	587	1828.149627109469	6.725855190243
0	590	1838.917404402989	10.76777729352
0	592	1858.523496903097	19.606092500108
0	595	1864.193271207255	5.669774304158
0	598	1878.104417010081	13.911145802826
0	601	1884.574913866983	6.470496856902
0	606	1897.481502899661	12.906589032678
0	609	1910.956876067086	13.475373167425
0	612	1918.239234524149	7.282358457063
0	614	1935.800201227006	17.560966702857
0	616	1938.01422601565	2.214024788644
0	620	1945.367562356587	7.353336340937
0	622	1945.996834338804	0.629271982217
0	625	1953.9906394915	7.993805152696
0	627	1961.935210812901	7.944571321401
0	630	1972.71154723874	10.776336425839
0	633	1983.766229935131	11.054682696391
0	640	2009.58976205757	25.823532122439
0	642	2010.305115897718	0.715353840148
0	645	2024.718875735562	14.413759837844
0	647	2035.171123604254	10.452247868692
0	651	2045.970591422756	10.799467818502
0	653	2048.259959798377	2.289368375621
0	656	2061.137069732749	12.877109934372
0	658	2067.917709967587	6.780640234838
0	660	2070.773393357945	2.855683390358
0	662	2071.546894867668	0.773501509723
0	665	2075.798033142452	4.251138274784
0	667	2079.637237375163	3.839204232711
0	670	2087.243594910992	7.606357535829
0	676	2100.627267242361	13.383672331369
0	678	2101.906502800102	1.279235557741
0	683	2123.521294134006	21.614791333904
0	687	2141.772629185623	18.251335051617
0	689	2150.021387031427	8.248757845804
0	691	2163.606231937324	13.584844905897
0	694	2174.438576824331	10.832344887007
0	697	2197.334329467046	22.895752642715
0	699	2203.243135610449	5.908806143403
0	704	2220.13728186844	16.894146257991
0	706	2224.98434931989	4.84706745145
0	709	2226.929361113976	1.945011794086
0	711	2227.590704533559	0.661343419583
0	713	2229.963443832537	2.372739298978
0	715	2230.496066057784	0.532622225247
0	718	2235.06610258692	4.570036529136
0	722	2253.743413411103	18.677310824183
0	728	2290.135220776939	36.391807365836
0	730	2291.533980325818	1.398759548879
0	733	2297.062811771701	5.528831445883
0	735	2299.343516343057	2.280704571356
0	738	2308.341052822038	8.997536478981
0	741	2319.214558151578	10.87350532954
0	744	2322.805152817426	3.590594665848
0	747	2333.033340656427	10.228187839001
0	752	2352.453002101466	19.419661445039
0	754	2363.263750625323	10.810748523857
0	756	2374.2309274105	10.967176785177
0	758	2380.931515253535	6.700587843035
0	763	2414.229640370977	33.298125117442
0	765	2417.076646012768	2.847005641791
0	769	2421.003646358063	3.927000345295
0	772	2432.776329067544	11.772682709481
0	776	2441.123404705866	8.347075638322
0	778	2471.12029695304	29.996892247174
0	780	2479.618789312382	8.498492359342
0	783	2486.168786569104	6.549997256722
0	787	2490.813589434112	4.644802865008
0	789	2498.311062241979	7.497472807867
0	791	2502.124440452949	3.81337821097
0	793	2502.939133591535	0.814693138586
0	800	2541.777605409849	38.838471818314
0	802	2547.48490768254	5.707302272691
0	804	2548.457912486565	0.973004804025
0	808	2556.662597770388	8.204685283823
0	813	2574.565778713042	17.903180942654
0	816	2590.633300206501	16.067521493459
0	818	2594.201690548699	3.568390342198
0	820	2594.655720155964	0.454029607265
0	825	2605.577006106458	10.921285950494
0	828	2617.101245389229	11.524239282771
0	831	2642.825638960981	25.724393571752
0	834	2653.841176353609	11.015537392628
0	837	2677.545728440327	23.704552086718
0	839	2685.346582558118	7.800854117791
0	842	2694.796221431418	9.4496388733
0	846	2697.504855243418	2.708633812
0	849	2701.383995135514	3.879139892096
0	853	2713.360932614575	11.976937479061
0	855	2718.15960342594	4.798670811365
0	858	2719.708202889525	1.548599463585
0	861	2726.586705868975	6.87850297945
0	863	2738.942991125374	12.356285256399
0	865	2742.774268310497	3.831277185123
0	869	2756.131589202803	13.357320892306
0	871	2757.156638236998	1.025049034195
0	875	2759.973866044368	2.81722780737
0	879	2775.685352762919	15.711486718551
0	883	2796.378371904307	20.693019141388
0	886	2803.061271037673	6.682899133366
0	888	2807.176088670092	4.114817632419
0	891	2812.526883493853	5.350794823761
0	895	2817.565520038165	5.038636544312
0	897	2822.435653462405	4.87013342424
0	900	2824.627073042861	2.191419580456
0	902	2826.941514740203	2.314441697342
0	905	2832.619843833901	5.678329093698
0	908	2841.492864104134	8.873020270233
0	910	2843.100039496193	1.607175392059
0	913	2844.604065656424	1.504026160231
0	917	2853.144508419512	8.540442763088
0	919	2854.037915160166	0.893406740654
0	923	2877.004033460023	22.966118299857
0	925	2879.829617479648	2.825584019625
0	929	2888.216867587371	8.387250107723
0	931	2891.634503260625	3.417635673254
0	933	2898.023526198366	6.389022937741
0	937	2914.175883174848	16.152356976482
0	943	2946.795344240842	32.619461065994
0	945	2950.776875437901	3.981531197059
0	947	2967.783174526695	17.006299088794
0	949	2986.373454333482	18.590279806787
0	952	2994.237501393818	7.864047060336
0	955	3001.367954741576	7.130453347758
0	957	3002.192482726253	0.824527984677
0	961	3012.645377088094	10.452894361841
0	963	3016.388452059674	3.74307497158
0	968	3027.446140213874	11.0576881542
0	970	3038.487133369804	11.04099315593
0	974	3050.942725580848	12.455592211044
0	976	3051.254186348492	0.311460767644
0	978	3054.546568382624	3.292382034132
0	982	3063.653458860624	9.106890478
0	986	3078.915468784718	15.262009924094
0	989	3086.297959238839	7.382490454121
0	991	3090.1984290176	3.900469778761
0	993	3094.899282996279	4.700853978679
0	995	3095.550487659167	0.651204662888
0	997	3099.201895718061	3.651408058894
0	999	3099.859008677168	0.657112959107
0	1003	3104.861034419927	5.002025742759
0	1012	3135.00495023175	30.143915811823
0	1014	3135.080682977175	0.075732745425
0	1017	3144.63401415123	9.553331174055
0	1019	3144.955638660715	0.321624509485
0	1021	3148.709277910753	3.753639250038
0	1024	3159.452876074205	10.743598163452
0	1028	3169.555870694161	10.102994619956
0	1030	3181.930871076942	12.375000382781
0	1035	3200.196138613892	18.26526753695
0	1037	3218.108223634465	17.912085020573
0	1042	3249.235245520827	31.127021886362
0	1044	3251.483408297751	2.248162776924
0	1047	3251.654615959364	0.171207661613
0	1049	3255.57010431557	3.915488356206
0	1051	3257.609309329792	2.039205014222
0	1054	3264.250020117578	6.640710787786
0	1056	3266.376506047316	2.126485929738
0	1058	3267.156830487418	0.780324440102
0	1060	3271.738789178978	4.58195869156
0	1062	3272.084181084813	0.345391905835
0	1067	3278.672283977181	6.588102892368
0	1071	3291.967848428048	13.295564450867
0	1075	3304.717230989353	12.749382561305
0	1080	3330.108703043015	25.391472053662
0	1084	3359.861406322271	29.752703279256
0	1087	3382.238409493508	22.377003171237
0	1089	3392.044085343362	9.805675849854
0	1091	3393.917822143661	1.873736800299
0	1093	3395.049908397684	1.132086254023
0	1096	3397.240621070895	2.190712673211
0	1099	3401.904366109109	4.663745038214
0	1101	3401.937195090229	0.03282898112
0	1106	3421.647719390075	19.710524299846
0	1108	3425.775125980796	4.127406590721
0	1110	3427.613002620784	1.837876639988
0	1113	3438.718167637523	11.105165016739
0	1115	3445.110005851174	6.391838213651
0	1117	3448.743357677745	3.633351826571
0	1119	3456.308286250044	7.564928572299
0	1121	3459.424833225505	3.116546975461
0	1127	3483.977603321602	24.552770096097
0	1131	3499.70758950923	15.729986187628
0	1133	3500.937986345336	1.230396836106
0	1135	3506.302397414432	5.364411069096
0	1137	3507.464951742819	1.162554328387
0	1142	3520.887760313423	13.422808570604
0	1146	3538.258413357478	17.370653044055
0	1152	3563.971630065975	25.713216708497
0	1155	3579.335021485473	15.363391419498
0	1158	3588.571134368636	9.236112883163
0	1160	3595.176419619735	6.605285251099
0	1162	3603.234441602957	8.058021983222
0	1164	3605.283133356241	2.048691753284
0	1171	3679.831714879066	74.548581522825
0	1173	3682.096731234072	2.265016355006
0	1176	3682.648272638692	0.55154140462
0	1178	3686.799143546414	4.150870907722
0	1182	3696.505134798606	9.705991252192
0	1186	3713.545815138106	17.0406803395
0	1188	3719.686172097222	6.140356959116
0	1190	3719.923403894321	0.237231797099
0	1194	3733.813268188632	13.889864294311
0	1197	3751.121664582451	17.308396393819
0	1201	3779.580086880414	28.458422297963
0	1203	3785.868631986173	6.288545105759
0	1206	3839.225412730231	53.356780744058
0	1208	3842.687828690752	3.462415960521
0	1211	3867.730375960373	25.042547269621
0	1213	3877.045392893076	9.315016932703
0	1217	3884.154778463746	7.10938557067
0	1222	3896.751383940415	12.596605476669
0	1224	3910.47441880191	13.723034861495
0	1228	3940.933350697242	30.458931895332
0	1230	3942.037813407757	1.104462710515
0	1232	3942.634682371742	0.596868963985
0	1234	3951.925037974091	9.290355602349
0	1236	3957.760250630653	5.835212656562
0	1238	3962.299708864177	4.539458233524
0	1243	3981.904124186399	19.604415322222
0	1245	3981.926462318774	0.022338132375
0	1249	3994.854211144861	12.927748826087
0	1251	3998.179109821486	3.324898676625
0	1254	4004.014160249573	5.835050428087
0	1258	4021.330858759846	17.316698510273
0	1261	4038.536536077911	17.205677318065
0	1265	4051.841597479168	13.305061401257
0	1267	4057.368576436016	5.526978956848
0	1269	4062.56874082826	5.200164392244
0	1271	4068.735370850618	6.166630022358
0	1276	4086.382305559162	17.646934708544
0	1278	4094.04245070824	7.660145149078
0	1280	4094.394621589559	0.352170881319
0	1282	4100.377080370901	5.982458781342
0	1284	4108.645974589198	8.268894218297
0	1290	4122.05810548695	13.412130897752
0	1293	4130.714772416326	8.656666929376
0	1295	4133.911648593638	3.196876177312
0	1297	4134.193965732892	0.282317139254
0	1306	4159.206016778339	25.012051045447
0	1308	4174.876217075189	15.67020029685
0	1310	4175.696196440836	0.819979365647
0	1312	4197.41932759117	21.723131150334
0	1315	4198.435753869747	1.016426278577
0	1318	4206.952277929026	8.516524059279
0	1320	4208.080181252823	1.127903323797
0	1323	4211.116195722124	3.036014469301
0	1327	4227.361888594774	16.24569287265
0	1331	4239.255728174266	11.893839579492
0	1334	4244.203764690711	4.948036516445
0	1337	4250.547275910604	6.343511219893
0	1339	4257.744894208383	7.197618297779
0	1342	4268.866427501734	11.121533293351
0	1344	4274.420952315079	5.554524813345
0	1350	4291.881794345152	17.460842030073
0	1353	4311.095906092823	19.214111747671
0	1356	4329.291496277797	18.195590184974
0	1358	4336.142457868362	6.850961590565
0	1361	4350.203053828657	14.060595960295
0	1366	4406.822762079634	56.619708250977
0	1368	4407.92654030637	1.103778226736
0	1372	4438.324813118571	30.398272812201
0	1375	4460.299492296148	21.974679177577
0	1378	4466.920001887093	6.620509590945
0	1380	4470.948573425369	4.028571538276
0	1383	4500.097487620533	29.148914195164
0	1385	4501.667095172433	1.5696075519
0	1389	4511.646034645717	9.978939473284
0	1392	4517.371426560443	5.725391914726
0	1394	4520.226571725611	2.855145165168
0	1398	4553.053192718251	32.82662099264
0	1400	4559.489544347291	6.43635162904
0	1403	4576.102303749335	16.612759402044
0	1406	4582.940423390997	6.838119641662
0	1410	4592.334210472303	9.393787081306
0	1413	4598.841026696167	6.506816223864
0	1415	4601.068893700178	2.227867004011
0	1417	4626.079311665027	25.010417964849
0	1419	4630.42053713414	4.341225469113
0	1421	4633.507240613559	3.086703479419
0	1425	4641.967949874667	8.460709261108
0	1427	4643.754467310573	1.786517435906
0	1435	4681.079035852955	37.324568542382
0	1437	4686.996416976437	5.917381123482
0	1439	4689.429523552221	2.433106575784
0	1442	4704.724766651711	15.29524309949
0	1446	4736.78887696294	32.064110311229
0	1449	4739.803286228184	3.014409265244
0	1451	4741.604992931199	1.801706703015
0	1453	4766.090551031306	24.485558100107
0	1455	4766.257547330412	0.166996299106
0	1459	4793.933772807807	27.676225477395
0	1463	4813.278891976409	19.345119168602
0	1465	4817.335113829597	4.056221853188
0	1467	4818.138456615684	0.803342786087
0	1469	4820.443622437576	2.305165821892
0	1473	4832.533722662474	12.090100224898
0	1477	4834.997062364674	2.4633397022
0	1482	4841.382176977987	6.385114613313
0	1484	4848.178247570174	6.796070592187
0	1486	4852.663483190033	4.485235619859
0	1490	4873.285735621301	20.622252431268
0	1495	4887.203997592223	13.918261970922
0	1498	4894.784989835962	7.580992243739
0	1500	4904.662471989698	9.877482153736
0	1502	4907.231785904985	2.569313915287
0	1504	4912.237389302031	5.005603397046
0	1508	4918.51430817412	6.276918872089
0	1511	4925.459660107258	6.945351933138
0	1515	4940.428411253162	14.968751145904
0	1517	4940.861261716129	0.432850462967
0	1519	4943.724030123879	2.86276840775
0	1521	4953.27683658266	9.552806458781
0	1524	4956.950712474322	3.673875891662
0	1529	4971.113984085373	14.163271611051
0	1534	4996.385559323922	25.271575238549
0	1536	5001.609784622503	5.224225298581
0	1538	5003.596535556075	1.986750933572
0	1540	5007.227689242703	3.631153686628
0	1542	5011.223021123775	3.995331881072
0	1544	5012.33408808521	1.111066961435
0	1546	5014.319660346076	1.985572260866
0	1549	5015.634271756596	1.31461141052
0	1554	5032.349824502611	16.715552746015
0	1556	5038.530058722199	6.180234219588
0	1562	5055.423977319511	16.893918597312
0	1564	5062.031789050894	6.607811731383
0	1567	5066.704253938546	4.672464887652
0	1569	5072.071241463914	5.366987525368
0	1571	5075.222901880463	3.151660416549
0	1573	5077.883833760883	2.66093188042
0	1579	5087.135991400917	9.252157640034
0	1583	5119.312163579929	32.176172179012
0	1585	5122.46942364494	3.157260065011
0	1587	5126.351081756002	3.881658111062
0	1591	5133.484030879909	7.132949123907
0	1595	5142.570329748383	9.086298868474
0	1597	5148.690058133583	6.1197283852
0	1599	5159.0231584905	10.333100356917
0	1601	5159.96743032596	0.94427183546
0	1604	5160.993887473045	1.026457147085
0	1607	5164.853122979675	3.85923550663
0	1610	5166.239473572429	1.386350592754
0	1612	5176.33665382854	10.097180256111
0	1615	5192.722194195352	16.385540366812
0	1617	5193.819283397556	1.097089202204
0	1622	5205.495779920757	11.676496523201
0	1628	5219.011626359019	13.515846438262
0	1630	5221.035176529398	2.023550170379
0	1633	5237.03033362232	15.995157092922
0	1636	5242.172845515219	5.142511892899
0	1638	5242.611797003613	0.438951488394
0	1641	5259.422914700567	16.811117696954
0	1644	5264.365631791356	4.942717090789
0	1651	5322.895834588132	58.530202796776
0	1654	5341.701488843543	18.805654255411
0	1656	5355.558358118686	13.856869275143
0	1658	5356.179819830666	0.62146171198
0	1661	5364.101773527134	7.921953696468
0	1663	5367.935631484281	3.833857957147
0	1665	5372.339300420687	4.403668936406
0	1667	5373.728841115988	1.389540695301
0	1671	5395.262521271344	21.533680155356
0	1673	5398.755542971953	3.493021700609
0	1676	5409.355001802208	10.599458830255
0	1678	5420.212973751171	10.857971948963
0	1681	5427.818310807093	7.605337055922
0	1684	5430.323644016648	2.505333209555
0	1688	5434.277699103133	3.954055086485
0	1690	5435.309246216141	1.031547113008
0	1693	5441.747434089777	6.438187873636
0	1696	5442.952263569701	1.204829479924
0	1698	5450.835201226258	7.882937656557
0	1701	5458.59750756281	7.762306336552
0	1707	5466.230606637924	7.633099075114
0	1711	5472.079052689583	5.848446051659
0	1714	5480.151659542071	8.072606852488
0	1716	5482.699446824784	2.547787282713
0	1721	5487.369983290863	4.670536466079
0	1724	5496.928347285648	9.558363994785
0	1727	5509.332140237866	12.403792952218
0	1731	5528.016563547743	18.684423309877
0	1733	5530.576735900802	2.560172353059
0	1737	5549.33230109802	18.755565197218
0	1739	5554.337849224956	5.005548126936
0	1741	5563.841747938788	9.503898713832
0	1746	5601.755015517345	37.913267578557
0	1748	5608.119114867852	6.364099350507
0	1750	5613.339267235385	5.220152367533
0	1752	5618.327760086201	4.988492850816
0	1754	5618.982630628737	0.654870542536
0	1758	5623.686394269519	4.703763640782
0	1761	5629.772670342865	6.086276073346
0	1766	5648.518507786869	18.745837444004
0	1769	5654.211016099259	5.69250831239
0	1771	5669.929172074302	15.718155975043
0	1776	5685.99776900712	16.068596932818
0	1780	5693.241989887716	7.244220880596
0	1782	5706.302798657093	13.060808769377
0	1785	5725.845608484751	19.542809827658
0	1787	5740.529579054111	14.68397056936
0	1789	5743.287778741231	2.75819968712
0	1791	5743.747143246819	0.459364505588
0	1793	5748.665954038695	4.918810791876
0	1795	5756.436469705872	7.770515667177
0	1798	5758.803578544449	2.367108838577
0	1802	5775.996289573496	17.192711029047
0	1807	5801.491695866896	25.4954062934
0	1812	5824.55624182711	23.064545960214
0	1816	5841.606975983241	17.050734156131
0	1819	5861.991813443299	20.384837460058
0	1821	5865.551944498046	3.560131054747
0	1824	5868.881367096846	3.3294225988
0	1826	5871.037913382272	2.156546285426
0	1828	5880.620046199751	9.582132817479
0	1832	5892.097445682993	11.477399483242
0	1835	5894.457806690653	2.36036100766
0	1839	5916.486816583624	22.029009892971
0	1841	5924.049085682829	7.562269099205
0	1845	5930.053759120355	6.004673437526
0	1848	5951.072609605525	21.01885048517
0	1850	5952.846165367137	1.773555761612
0	1852	5957.090576638657	4.24441127152
0	1854	5970.079994433117	12.98941779446
0	1859	5985.47234286242	15.392348429303
0	1861	5986.456504776604	0.984161914184
0	1863	5987.660092417459	1.203587640855
0	1865	5991.188829035103	3.528736617644
0	1867	5993.229504150496	2.040675115393
0	1870	5994.782946913719	1.553442763223
0	1874	6007.506303803275	12.723356889556
0	1876	6008.636824642817	1.130520839542
0	1879	6013.597828416781	4.961003773964
0	1881	6014.527577987462	0.929749570681
0	1884	6020.13284569202	5.605267704558
0	1888	6025.178723214522	5.045877522502
0	1891	6037.451790868107	12.273067653585
0	1893	6037.729751995845	0.277961127738
0	1896	6050.322935020969	12.593183025124
0	1898	6057.174224867073	6.851289846104
0	1904	6080.909149513881	23.734924646808
0	1907	6083.2523575108	2.343207996919
0	1910	6085.790813366231	2.538455855431
0	1913	6094.485721348844	8.694907982613
0	1916	6104.521525272765	10.035803923921
0	1918	6107.325872556199	2.804347283434
0	1922	6122.715687948076	15.389815391877
0	1925	6132.585121294223	9.869433346147
0	1928	6135.196644638801	2.611523344578
0	1935	6178.276540674909	43.079896036108
0	1937	6178.853035597338	0.576494922429
0	1939	6181.666145935434	2.813110338096
0	1942	6186.398768701193	4.732622765759
0	1945	6191.029355118756	4.630586417563
0	1947	6191.222196733841	0.192841615085
0	1949	6194.132526957346	2.910330223505
0	1951	6197.514421539959	3.381894582613
0	1959	6227.482173484065	29.967751944106
0	1961	6239.703700093975	12.22152660991
0	1965	6258.571920091208	18.868219997233
0	1967	6272.735798914475	14.163878823267
0	1969	6281.199185054108	8.463386139633
0	1973	6294.115426096286	12.916241042178
0	1976	6303.186571052986	9.0711449567
0	1978	6314.999909971546	11.81333891856
0	1980	6315.095792300541	0.095882328995
0	1984	6322.704956303266	7.609164002725
0	1986	6325.450149615116	2.74519331185
0	1988	6326.835883238005	1.385733622889
0	1992	6337.517770709695	10.68188747169
0	1996	6345.638461537776	8.120690828081
0	1999	6347.643806416727	2.005344878951
0	2002	6358.711458260596	11.067651843869
0	2004	6366.409595660551	7.698137399955
0	2008	6375.126136961782	8.716541301231
0	2012	6385.117759598267	9.991622636485
0	2014	6393.778302095983	8.660542497716
0	2016	6402.369912658855	8.591610562872
0	2021	6407.393092534299	5.023179875444
0	2023	6408.641568192556	1.248475658257
0	2026	6415.834154532155	7.192586339599
0	2028	6423.028802088361	7.194647556206
0	2030	6424.264100480818	1.235298392457
0	2032	6431.916086710495	7.651986229677
0	2034	6432.4184760019	0.502389291405
0	2040	6444.132766086158	11.714290084258
0	2044	6460.259653889559	16.126887803401
0	2047	6469.831020339306	9.571366449747
0	2051	6484.103633837625	14.272613498319
0	2054	6490.209281657046	6.105647819421
0	2056	6492.384364431297	2.175082774251
0	2058	6492.614481653274	0.230117221977
0	2061	6503.046569986384	10.43208833311
0	2063	6506.125042634614	3.07847264823
0	2066	6507.636498290784	1.51145565617
0	2071	6520.488876379284	12.8523780885
0	2073	6522.595191920502	2.106315541218
0	2075	6526.110602855142	3.51541093464
0	2080	6557.940223221281	31.829620366139
0	2084	6560.806890747499	2.866667526218
0	2086	6560.968055870166	0.161165122667
0	2088	6561.527704851534	0.559648981368
0	2091	6564.610877225675	3.083172374141
0	2095	6573.915745853464	9.304868627789
0	2100	6592.259118642864	18.3433727894
0	2103	6611.759171543205	19.500052900341
0	2106	6631.727616719384	19.968445176179
0	2108	6632.965868416345	1.238251696961
0	2111	6636.469407160661	3.503538744316
0	2114	6652.026977266061	15.5575701054
0	2117	6656.100164141775	4.073186875714
0	2122	6682.096201648379	25.996037506604
0	2124	6695.806214804453	13.710013156074
0	2128	6702.740987943745	6.934773139292
0	2130	6712.903947668353	10.162959724608
0	2132	6729.353716519217	16.449768850864
0	2137	6736.348035558554	6.994319039337
0	2140	6738.539244056423	2.191208497869
0	2142	6751.138708458679	12.599464402256
0	2145	6754.418291435044	3.279582976365
0	2148	6763.788535959578	9.370244524534
0	2150	6764.745353427472	0.956817467894
0	2152	6772.205185766705	7.459832339233
0	2157	6780.648343282455	8.44315751575
0	2160	6782.896536258555	2.2481929761
0	2162	6791.103283488563	8.206747230008
0	2164	6805.6518549447	14.548571456137
0	2166	6812.527325041216	6.875470096516
0	2170	6821.70252791633	9.175202875114
0	2174	6854.472822543727	32.770294627397
0	2176	6855.077726591164	0.604904047437
0	2178	6855.713949194555	0.636222603391
0	2180	6857.897019866468	2.183070671913
0	2185	6869.731013771346	11.833993904878
0	2187	6872.739519602203	3.008505830857
0	2193	6896.636548313406	23.897028711203
0	2195	6899.353626938066	2.71707862466
0	2198	6905.309253172493	5.955626234427
0	2200	6908.040153215782	2.730900043289
0	2203	6924.462715321956	16.422562106174
0	2206	6928.816385578448	4.353670256492
0	2208	6933.15148420806	4.335098629612
0	2212	6946.094290010205	12.942805802145
0	2215	6951.126623596431	5.032333586226
0	2217	6962.060795519409	10.934171922978
0	2222	6985.035054773666	22.974259254257
0	2226	7006.431576301761	21.396521528095
0	2228	7008.512150277946	2.080573976185
0	2232	7018.15451674497	9.642366467024
0	2234	7026.816047070506	8.661530325536
0	2236	7028.69459985907	1.878552788564
0	2238	7036.813424989831	8.118825130761
0	2242	7044.800137132161	7.98671214233
0	2244	7047.980322337588	3.180185205427
0	2247	7063.650151948582	15.669829610994
0	2249	7064.329453715542	0.67930176696
0	2253	7088.978444834257	24.648991118715
0	2255	7098.61143646785	9.632991633593
0	2257	7099.284553335294	0.673116867444
0	2262	7105.795015594558	6.510462259264
0	2267	7110.870595005112	5.075579410554
0	2269	7117.355662130593	6.485067125481
0	2272	7125.582383678846	8.226721548253
0	2276	7175.706083094261	50.123699415415
0	2278	7178.931107833702	3.225024739441
0	2282	7189.281910375557	10.350802541855
0	2284	7197.910238141419	8.628327765862
0	2289	7205.217270997456	7.307032856037
0	2291	7216.631802448627	11.414531451171
0	2295	7227.072925435329	10.441122986702
0	2297	7231.236287867654	4.163362432325
0	2299	7236.979681399176	5.743393531522
0	2301	7238.531001923432	1.551320524256
0	2306	7278.823999787532	40.2929978641
0	2311	7292.82842518322	14.004425395688
0	2313	7298.253948601496	5.425523418276
0	2315	7308.074311486972	9.820362885476
0	2318	7314.179996371978	6.105684885006
0	2320	7321.947921468082	7.767925096104
0	2324	7334.379640159285	12.431718691203
0	2326	7346.47608022335	12.096440064065
0	2328	7349.397196830764	2.921116607414
0	2332	7361.51023101028	12.113034179516
0	2338	7387.679006635182	26.168775624902
0	2340	7398.987885907822	11.30887927264
0	2343	7413.418575693825	14.430689786003
0	2347	7426.899731272047	13.481155578222
0	2350	7463.494588345596	36.594857073549
0	2352	7468.340888724079	4.846300378483
0	2354	7472.39172871665	4.050839992571
0	2356	7483.609589289395	11.217860572745
0	2359	7487.937162934945	4.32757364555
0	2363	7491.41361585415	3.476452919205
0	2365	7496.654611988143	5.240996133993
0	2367	7497.181469537839	0.526857549696
0	2369	7497.6519475653	0.470478027461
0	2373	7514.308100129715	16.656152564415
0	2378	7520.923071491607	6.614971361892
0	2380	7521.010938381557	0.08786688995
0	2382	7530.406707781471	9.395769399914
0	2385	7541.316608916966	10.909901135495
0	2389	7550.491179458633	9.174570541667
0	2391	7558.088378460971	7.597199002338
0	2394	7564.073844386144	5.985465925173
0	2397	7564.565554898183	0.491710512039
0	2401	7580.680138090735	16.114583192552
0	2404	7580.914500986624	0.234362895889
0	2406	7584.552305246387	3.637804259763
0	2408	7587.044887038655	2.492581792268
0	2410	7587.179557016943	0.134669978288
0	2418	7612.783859926078	25.604302909135
0	2421	7634.090219337743	21.306359411665
0	2425	7649.897194981935	15.806975644192
0	2428	7658.091796416081	8.194601434146
0	2430	7661.528332556539	3.436536140458
0	2433	7666.304015741751	4.775683185212
0	2436	7699.291658707745	32.987642965994
0	2438	7712.888754771265	13.59709606352
0	2441	7718.16526089965	5.276506128385
0	2444	7735.149700085256	16.984439185606
0	2447	7740.9018338574	5.752133772144
0	2450	7745.299154830521	4.397320973121
0	2452	7747.491458800931	2.19230397041
0	2454	7750.793503562171	3.30204476124
0	2460	7775.815411199907	25.021907637736
0	2462	7777.027712283492	1.212301083585
0	2464	7784.669392275512	7.64167999202
0	2467	7801.300663051946	16.631270776434
0	2471	7808.877028839373	7.576365787427
0	2474	7811.085809697314	2.208780857941
0	2476	7823.208730839711	12.122921142397
0	2478	7826.27871988002	3.069989040309
0	2483	7836.550700326507	10.271980446487
0	2485	7837.194942843055	0.644242516548
0	2488	7844.417461909943	7.222519066888
0	2490	7852.084609108154	7.667147198211
0	2497	7887.007326488856	34.922717380702
0	2499	7888.122326727365	1.115000238509
0	2501	7894.297171965216	6.174845237851
0	2505	7910.061349663627	15.764177698411
0	2509	7948.193061923481	38.131712259854
0	2512	7969.30834603593	21.115284112449
0	2514	7976.16094878557	6.85260274964
0	2516	7988.695327088445	12.534378302875
0	2518	7993.080932006669	4.385604918224
0	2522	8007.356084854715	14.275152848046
0	2525	8011.985304504825	4.62921965011
0	2529	8030.744822384946	18.759517880121
0	2531	8038.629884203525	7.885061818579
0	2534	8052.402485882164	13.772601678639
0	2536	8055.285501006581	2.883015124417
0	2538	8055.798483088137	0.512982081556
0	2542	8057.516647744358	1.718164656221
0	2544	8057.90121374783	0.384566003472
0	2548	8076.794719337331	18.893505589501
0	2550	8081.758640306874	4.963920969543
0	2554	8090.877805384692	9.119165077818
0	2556	8097.626748782992	6.7489433983
0	2559	8116.291202979733	18.664454196741
0	2562	8118.622398021716	2.331195041983
0	2564	8132.073684827852	13.451286806136
0	2568	8138.072639812741	5.998954984889
0	2573	8147.151330606845	9.078690794104
0	2575	8147.192883182859	0.041552576014
0	2579	8187.891275354416	40.698392171557
0	2582	8196.11933573994	8.228060385524
0	2584	8196.690001497577	0.570665757637
0	2586	8197.410911748802	0.720910251225
0	2588	8203.181955593876	5.771043845074
0	2591	8204.686749991328	1.504794397452
0	2596	8212.23497591544	7.548225924112
0	2600	8229.411292947836	17.176317032396
0	2602	8243.131443950661	13.720151002825
0	2608	8263.976059037933	20.844615087272
0	2610	8283.069183711631	19.093124673698
0	2612	8295.024846537333	11.955662825702
0	2616	8314.855248017639	19.830401480306
0	2620	8334.146864497738	19.291616480099
0	2622	8334.749704751433	0.602840253695
0	2625	8336.21402060441	1.464315852977
0	2628	8343.564784642271	7.350764037861
0	2630	8351.252646274442	7.687861632171
0	2632	8352.182776334053	0.930130059611
0	2635	8367.535286045411	15.352509711358
0	2637	8369.088471722553	1.553185677142
0	2639	8380.701874121983	11.61340239943
0	2642	8394.8601851401	14.158311018117
0	2645	8397.268077527431	2.407892387331
0	2649	8409.238021002915	11.969943475484
0	2651	8409.780335700994	0.542314698079
0	2653	8415.012937972507	5.232602271513
0	2655	8419.453058561575	4.440120589068
0	2657	8422.917818769548	3.464760207973
0	2662	8433.684862289669	10.767043520121
0	2665	8435.52528367283	1.840421383161
0	2667	8438.110768504653	2.585484831823
0	2669	8439.657183752344	1.546415247691
0	2672	8445.539123080452	5.881939328108
0	2674	8449.093523812609	3.554400732157
0	2679	8456.151935443726	7.058411631117
0	2682	8463.240469806204	7.088534362478
0	2688	8497.240213074869	33.999743268665
0	2694	8543.247273282756	46.007060207887
0	2696	8546.717863059232	3.470589776476
0	2699	8565.401276944772	18.68341388554
0	2702	8566.700900270098	1.299623325326
0	2705	8584.792374956282	18.091474686184
0	2708	8587.693374128048	2.900999171766
0	2710	8596.852715847003	9.159341718955
0	2712	8600.314611233401	3.461895386398
0	2715	8613.484494382431	13.16988314903
0	2721	8635.150035144976	21.665540762545
0	2724	8658.814238027939	23.664202882963
0	2726	8660.188975194466	1.374737166527
0	2729	8666.56531866813	6.376343473664
0	2733	8672.179957555876	5.614638887746
0	2735	8684.652491325467	12.472533769591
0	2737	8684.93212254227	0.279631216803
0	2739	8687.337809176259	2.405686633989
0	2741	8690.923646096743	3.585836920484
0	2743	8701.131524959463	10.20787886272
0	2746	8706.746564555643	5.61503959618
0	2751	8719.810549331929	13.063984776286
0	2754	8725.309724585532	5.499175253603
0	2756	8725.561768217878	0.252043632346
0	2761	8732.862135079842	7.300366861964
0	2763	8733.914786647412	1.05265156757
0	2765	8735.155913642053	1.241126994641
0	2769	8741.87252760308	6.716613961027
0	2772	8749.439304665679	7.566777062599
0	2774	8749.458541603496	0.019236937817
0	2779	8770.9376455225	21.479103919004
0	2781	8781.056738272029	10.119092749529
0	2784	8789.883640791865	8.826902519836
0	2786	8791.684310046675	1.80066925481
0	2789	8800.077846723296	8.393536676621
0	2791	8802.070615558057	1.992768834761
0	2794	8808.649304615188	6.578689057131
0	2796	8809.009358676114	0.360054060926
0	2801	8817.38838821858	8.379029542466
0	2805	8835.589635285224	18.201247066644
0	2807	8847.166649122003	11.577013836779
0	2813	8893.263849077372	46.097199955369
0	2815	8898.622681952963	5.358832875591
0	2818	8908.468399004114	9.845717051151
0	2823	8931.838516597022	23.370117592908
0	2826	8941.892846169926	10.054329572904
0	2828	8956.512692252087	14.619846082161
0	2831	8959.070167686035	2.557475433948
0	2834	8982.201631002912	23.131463316877
0	2836	8983.78787771177	1.586246708858
0	2841	9013.322962125976	29.535084414206
0	2843	9020.501755802083	7.178793676107
0	2846	9037.125661920532	16.623906118449
0	2848	9037.842201835993	0.716539915461
0	2852	9045.011230584709	7.169028748716
0	2855	9056.193412792819	11.18218220811
0	2857	9059.412728092421	3.219315299602
0	2861	9077.474324431941	18.06159633952
0	2866	9092.565902016978	15.091577585037
0	2868	9112.41808481217	19.852182795192
0	2871	9114.282723190413	1.864638378243
0	2873	9133.554121318211	19.271398127798
0	2875	9139.720146771607	6.166025453396
0	2879	9170.664167518271	30.944020746664
0	2882	9176.160613477226	5.496445958955
0	2884	9182.437045783938	6.276432306712
0	2887	9186.831001268884	4.393955484946
0	2889	9188.329923304727	1.498922035843
0	2893	9207.078282841514	18.748359536787
0	2895	9207.991066477778	0.912783636264
0	2900	9223.650083815777	15.659017337999
0	2905	9265.568220793716	41.918136977939
0	2908	9270.110027247329	4.541806453613
0	2910	9278.6856895247	8.575662277371
0	2912	9298.490924947855	19.805235423155
0	2914	9301.036429979379	2.545505031524
0	2918	9303.263114762521	2.226684783142
0	2920	9308.178985906733	4.915871144212
0	2922	9310.390799723803	2.21181381707
0	2926	9330.476888287137	20.086088563334
0	2928	9331.436784819653	0.959896532516
0	2930	9333.661746491226	2.224961671573
0	2934	9339.987879815328	6.326133324102
0	2936	9345.809397661569	5.821517846241
0	2939	9350.675365332092	4.865967670523
0	2942	9352.084697154863	1.409331822771
0	2948	9407.610222905088	55.525525750225
0	2950	9412.533920813646	4.923697908558
0	2956	9453.95749967685	41.423578863204
0	2958	9455.315515305777	1.358015628927
0	2960	9465.496939201296	10.181423895519
0	2963	9470.29081187764	4.793872676344
0	2966	9475.849273771707	5.558461894067
0	2968	9477.598659770158	1.749385998451
0	2972	9500.566159955785	22.967500185627
0	2974	9506.150300992894	5.584141037109
0	2976	9512.679399177333	6.529098184439
0	2979	9513.992072455558	1.312673278225
0	2986	9542.158282048976	28.166209593418
0	2988	9552.275036749872	10.116754700896
0	2990	9563.194545921194	10.919509171322
0	2993	9575.011323044107	11.816777122913
0	2995	9584.944858146862	9.933535102755
0	2997	9587.284086257796	2.339228110934
0	2999	9593.118009163244	5.833922905448
0	3001	9614.797426997978	21.679417834734
0	3006	9632.678718458059	17.881291460081
0	3010	9649.660489192322	16.981770734263
0	3012	9652.417513781177	2.757024588855
0	3017	9676.918336495942	24.500822714765
0	3019	9678.371398256666	1.453061760724
0	3024	9686.429989181226	8.05859092456
0	3026	9687.757014898431	1.327025717205
0	3028	9689.172526425789	1.415511527358
0	3033	9719.596813901227	30.424287475438
0	3036	9726.986179881223	7.389365979996
0	3038	9730.039415546007	3.053235664784
0	3041	9764.107403056663	34.067987510656
0	3044	9774.498855037091	10.391451980428
0	3048	9789.439663661407	14.940808624316
0	3051	9797.640001629106	8.200337967699
0	3054	9798.724702371955	1.084700742849
0	3058	9823.842107208188	25.117404836233
0	3060	9839.643806877949	15.801699669761
0	3062	9843.7814696944	4.137662816451
0	3065	9873.299074373509	29.517604679109
0	3067	9873.308158583841	0.009084210332
0	3069	9876.150871030889	2.842712447048
0	3071	9884.187047898753	8.036176867864
0	3073	9886.149028748524	1.961980849771
0	3076	9891.337774269001	5.188745520477
0	3078	9891.616562960659	0.278788691658
0	3086	9930.132770608446	38.516207647787
0	3089	9955.813098712663	25.680328104217
0	3093	9973.767979468439	17.954880755776
0	3096	9977.924042649812	4.156063181373
0	3100	9978.680938365171	0.756895715359
0	3103	10006.288917906911	27.60797954174
0	3106	10034.860152841008	28.571234934097
0	3108	10049.079525320925	14.219372479917
0	3110	10060.496675031018	11.417149710093
0	3112	10074.327087012976	13.830411981958
0	3115	10078.137392066547	3.810305053571
0	3117	10085.979959558834	7.842567492287
0	3119	10088.832378455903	2.852418897069
0	3121	10092.641481504317	3.809103048414
0	3124	10100.136216793049	7.494735288732
0	3129	10113.899677743804	13.763460950755
0	3131	10122.179981511526	8.280303767722
0	3136	10134.347722938755	12.167741427229
0	3138	10136.535418030717	2.187695091962
0	3141	10140.714806734897	4.17938870418
0	3145	10143.870184391574	3.155377656677
0	3148	10173.255827754708	29.385643363134
0	3153	10215.689413394065	42.433585639357
0	3156	10223.9179193404	8.228505946335
0	3158	10228.920520591763	5.002601251363
0	3160	10232.488147745402	3.567627153639
0	3162	10236.815680382101	4.327532636699
0	3165	10246.734566809817	9.918886427716
0	3171	10265.243403985617	18.5088371758
0	3173	10269.278000125796	4.034596140179
0	3176	10274.943637170338	5.665637044542
0	3179	10288.692442551859	13.748805381521
0	3181	10290.118726303926	1.426283752067
0	3185	10303.960214052338	13.841487748412
0	3189	10322.574526992319	18.614312939981
0	3191	10326.957925504455	4.383398512136
0	3195	10353.795270886182	26.837345381727
0	3197	10358.387944909473	4.592674023291
0	3199	10362.372200754819	3.984255845346
0	3203	10378.745192994028	16.372992239209
0	3206	10392.729064559143	13.983871565115
0	3209	10399.712130079903	6.98306552076
0	3212	10423.555742660229	23.843612580326
0	3214	10431.270498415782	7.714755755553
0	3217	10442.955937788277	11.685439372495
0	3219	10443.230607202655	0.274669414378
0	3225	10469.641560643568	26.410953440913
0	3227	10472.199899254391	2.558338610823
0	3230	10478.384252636161	6.18435338177
0	3233	10479.598580768232	1.214328132071
0	3236	10488.433967361402	8.83538659317
0	3239	10509.581695897377	21.147728535975
0	3243	10520.312439263022	10.730743365645
0	3246	10567.713007212271	47.400567949249
0	3249	10578.897179845135	11.184172632864
0	3251	10603.057433888001	24.160254042866
0	3253	10604.895624470437	1.838190582436
0	3257	10615.438569583557	10.54294511312
0	3259	10617.271043166714	1.832473583157
0	3262	10633.988680864992	16.717637698278
0	3265	10640.609768752532	6.62108788754
0	3269	10657.375955263192	16.76618651066
0	3273	10663.345973199285	5.970017936093
0	3276	10669.104820411617	5.758847212332
0	3278	10672.092870524431	2.988050112814
0	3281	10674.484455575143	2.391585050712
0	3283	10688.019228992786	13.534773417643
0	3285	10690.952774666586	2.9335456738
0	3287	10692.969873383723	2.017098717137
0	3291	10698.013683221103	5.04380983738
0	3293	10699.107976557167	1.094293336064
0	3299	10719.413382236884	20.305405679717
0	3301	10738.527809762267	19.114427525383
0	3306	10765.136324746399	26.608514984132
0	3309	10769.665218827251	4.528894080852
0	3312	10781.704677743639	12.039458916388
0	3314	10784.350351918549	2.64567417491
0	3316	10785.28009289622	0.929740977671
0	3320	10801.427181793933	16.147088897713
0	3322	10802.853347017592	1.426165223659
0	3325	10811.343652299737	8.490305282145
0	3327	10815.119432546473	3.775780246736
0	3329	10817.145015809605	2.025583263132
0	3335	10828.135318865939	10.990303056334
0	3340	10866.687490178165	38.552171312226
0	3342	10873.706918248035	7.01942806987
0	3344	10886.361004250801	12.654086002766
0	3346	10890.412624258321	4.05162000752
0	3348	10890.569706630564	0.157082372243
0	3355	10916.29755878133	25.727852150766
0	3357	10932.572373472675	16.274814691345
0	3359	10944.737014447366	12.164640974691
0	3362	10955.471120324043	10.734105876677
0	3364	10961.134694243521	5.663573919478
0	3369	10974.126025625346	12.991331381825
0	3372	10989.288468570625	15.162442945279
0	3376	11002.580013335907	13.291544765282
0	3379	11013.457730393441	10.877717057534
0	3381	11023.632554503247	10.174824109806
0	3383	11024.517780832649	0.885226329402
0	3385	11025.876557448866	1.358776616217
0	3389	11037.829201646088	11.952644197222
0	3392	11063.618309615797	25.789107969709
0	3395	11070.366483103981	6.748173488184
0	3399	11107.276922115736	36.910439011755
0	3402	11127.967618971358	20.690696855622
0	3405	11135.996050728509	8.028431757151
0	3407	11142.061939409674	6.065888681165
0	3409	11149.079735003272	7.017795593598
0	3413	11179.431436764163	30.351701760891
0	3415	11183.734495261515	4.303058497352
0	3418	11191.731911020791	7.997415759276
0	3420	11193.761546684278	2.029635663487
0	3427	11222.591063512197	28.829516827919
0	3430	11235.398259958745	12.807196446548
0	3433	11251.179224299608	15.780964340863
0	3435	11272.383171215109	21.203946915501
0	3437	11275.865027160587	3.481855945478
0	3440	11281.354421912038	5.489394751451
0	3444	11288.99175408436	7.637332172322
0	3446	11295.299485185658	6.307731101298
0	3448	11298.907714815466	3.608229629808
0	3450	11302.357140275931	3.449425460465
0	3452	11305.094369535774	2.737229259843
0	3458	11314.539266515016	9.444896979242
0	3460	11317.601722528211	3.062456013195
0	3463	11328.634166765964	11.032444237753
0	3466	11335.161694048549	6.527527282585
0	3470	11348.830404008401	13.668709959852
0	3473	11354.429225804737	5.598821796336
0	3476	11376.163358288456	21.734132483719
0	3480	11399.540425747717	23.377067459261
0	3484	11420.779336054126	21.238910306409
0	3486	11422.92130129204	2.141965237914
0	3488	11426.560832518768	3.639531226728
0	3490	11428.853328941106	2.292496422338
0	3493	11449.286940720543	20.433611779437
0	3495	11450.336838522743	1.0498978022
0	3497	11450.396642166369	0.059803643626
0	3499	11450.899018704764	0.502376538395
0	3503	11456.323500260555	5.424481555791
0	3505	11464.147136385933	7.823636125378
0	3507	11469.316512194737	5.169375808804
0	3513	11486.913141206468	17.596629011731
0	3516	11502.420115912785	15.506974706317
0	3518	11505.415140307988	2.995024395203
0	3520	11506.0675941626	0.652453854612
0	3522	11510.606101549399	4.538507386799
0	3525	11526.039815536451	15.433713987052
0	3531	11540.689041783879	14.649226247428
0	3534	11544.596521167257	3.907479383378
0	3537	11545.988802075589	1.392280908332
0	3540	11550.802545332702	4.813743257113
0	3542	11552.587732218754	1.785186886052
0	3544	11553.747765425124	1.16003320637
0	3551	11577.505980838545	23.758215413421
0	3554	11583.132553564624	5.626572726079
0	3557	11587.182512627076	4.049959062452
0	3559	11588.863837240747	1.681324613671
0	3561	11596.948767148222	8.084929907475
0	3567	11626.87631966248	29.927552514258
0	3569	11632.862658962268	5.986339299788
0	3571	11637.052496911079	4.189837948811
0	3573	11643.078441798713	6.025944887634
0	3576	11645.970164771043	2.89172297233
0	3578	11653.165592883909	7.195428112866
0	3580	11655.323803724175	2.158210840266
0	3586	11661.154851404198	5.831047680023
0	3589	11669.471870874647	8.317019470449
0	3592	11680.287020728598	10.815149853951
0	3598	11689.790264311602	9.503243583004
0	3600	11691.094789555976	1.304525244374
0	3602	11697.008333142165	5.913543586189
0	3607	11714.421838610253	17.413505468088
0	3609	11716.503883239959	2.082044629706
0	3611	11718.842809761108	2.338926521149
0	3613	11724.894867580914	6.052057819806
0	3616	11750.492062553103	25.597194972189
0	3622	11840.94877328278	90.456710729677
0	3624	11843.86195481894	2.91318153616
0	3628	11886.510283901404	42.648329082464
0	3630	11890.612114185184	4.10183028378
0	3632	11893.168016475554	2.55590229037
0	3634	11899.167851753945	5.999835278391
0	3637	11926.516828018164	27.348976264219
0	3639	11934.906167215307	8.389339197143
0	3641	11954.032041060625	19.125873845318
0	3643	11954.782101783814	0.750060723189
0	3650	11970.389580490123	15.607478706309
0	3653	11982.324793411977	11.935212921854
0	3657	11994.057987971843	11.733194559866
0	3660	12008.853598441129	14.795610469286
0	3663	12011.520022297812	2.666423856683
0	3667	12043.253944096241	31.733921798429
0	3669	12044.89235779781	1.638413701569
0	3671	12054.601292456524	9.708934658714
0	3674	12070.157014250284	15.55572179376
0	3676	12076.984964250098	6.827949999814
0	3678	12081.715194953074	4.730230702976
0	3680	12083.640353119765	1.925158166691
0	3682	12084.266898337276	0.626545217511
0	3684	12084.269841076675	0.002942739399
0	3687	12092.413574997434	8.143733920759
0	3689	12095.17061155545	2.757036558016
0	3691	12099.073000738773	3.902389183323
0	3697	12118.01999647695	18.946995738177
0	3702	12136.073347815177	18.053351338227
0	3706	12139.781087809589	3.707739994412
0	3709	12156.755884231425	16.974796421836
0	3711	12166.501864751953	9.745980520528
0	3714	12172.759230681178	6.257365929225
0	3716	12174.12967322935	1.370442548172
0	3718	12177.577584743425	3.447911514075
0	3722	12191.558881669564	13.981296926139
0	3727	12204.462797814205	12.903916144641
0	3729	12207.808657232562	3.345859418357
0	3731	12221.454652327933	13.645995095371
0	3733	12224.251153672179	2.796501344246
0	3741	12283.900555647775	59.649401975596
0	3743	12300.550565859131	16.650010211356
0	3745	12300.607115231854	0.056549372723
0	3747	12310.302639353704	9.69552412185
0	3749	12311.508388928847	1.205749575143
0	3753	12322.997363553481	11.488974624634
0	3755	12332.425995486651	9.42863193317
0	3759	12344.530674496793	12.104679010142
0	3763	12347.282437591259	2.751763094466
0	3765	12350.300239828124	3.017802236865
0	3767	12353.456905056419	3.156665228295
0	3769	12366.957997923504	13.501092867085
0	3773	12386.76735272205	19.809354798546
0	3776	12391.811877641353	5.044524919303
0	3779	12411.28220847684	19.470330835487
0	3785	12446.439637541133	35.157429064293
0	3787	12447.631850057247	1.192212516114
0	3790	12452.345313818919	4.713463761672
0	3792	12452.520120172489	0.17480635357
0	3795	12465.949548310281	13.429428137792
0	3800	12481.766637303758	15.817088993477
0	3804	12504.957236112968	23.19059880921
0	3807	12511.926064971148	6.96882885818
0	3809	12512.739744329955	0.813679358807
0	3811	12517.237532792833	4.497788462878
0	3815	12524.593556517287	7.356023724454
0	3819	12533.022751808215	8.429195290928
0	3821	12533.383855567029	0.361103758814
0	3824	12543.529499715261	10.145644148232
0	3826	12564.957082877288	21.427583162027
0	3830	12580.400104675983	15.443021798695
0	3834	12622.869430697052	42.469326021069
0	3836	12623.569749341838	0.700318644786
0	3839	12626.263250966013	2.693501624175
0	3842	12633.49802327456	7.234772308547
0	3847	12661.995040393834	28.497017119274
0	3849	12672.985786482033	10.990746088199
0	3852	12683.412853279792	10.427066797759
0	3855	12724.693354304039	41.280501024247
0	3857	12737.014872267422	12.321517963383
0	3860	12751.92574866085	14.910876393428
0	3863	12754.553462366479	2.627713705629
0	3865	12754.570985615869	0.01752324939
0	3870	12784.861478331174	30.290492715305
0	3872	12792.428878656535	7.567400325361
0	3875	12805.518910836182	13.090032179647
0	3878	12811.992540800139	6.473629963957
0	3881	12830.121265177769	18.12872437763
0	3884	12841.746540081283	11.625274903514
0	3887	12849.994984333491	8.248444252208
0	3890	12862.426195434301	12.43121110081
0	3892	12865.527067678484	3.100872244183
0	3894	12865.961549258758	0.434481580274
0	3897	12872.603860651755	6.642311392997
0	3901	12877.506056964759	4.902196313004
0	3903	12884.334499365442	6.828442400683
0	3910	12933.252333820516	48.917834455074
0	3912	12936.269834710979	3.017500890463
0	3914	12939.639444676505	3.369609965526
0	3916	12940.164710502551	0.525265826046
0	3918	12940.935587463736	0.770876961185
0	3922	12946.13402344246	5.198435978724
0	3924	12966.570893884245	20.436870441785
0	3927	12973.491645205325	6.92075132108
0	3930	12981.604894570519	8.113249365194
0	3935	12996.044723883065	14.439829312546
0	3938	13000.153250428708	4.108526545643
0	3940	13001.790825518723	1.637575090015
0	3944	13032.76552822141	30.974702702687
0	3946	13041.458106990923	8.692578769513
0	3948	13052.479964328231	11.021857337308
0	3950	13055.264641668931	2.7846773407
0	3958	13114.092743201803	58.828101532872
0	3960	13128.230614941587	14.137871739784
0	3962	13136.316760559555	8.086145617968
0	3965	13150.446036946132	14.129276386577
0	3968	13157.935122215499	7.489085269367
0	3970	13158.545275151923	0.610152936424
0	3973	13170.49126512626	11.945989974337
0	3975	13174.270830499051	3.779565372791
0	3978	13200.692868417301	26.42203791825
0	3980	13205.726333307378	5.033464890077
0	3982	13215.111292705422	9.384959398044
0	3988	13222.086074988306	6.974782282884
0	3990	13222.633553870863	0.547478882557
0	3993	13229.342549831599	6.708995960736
0	3995	13232.488132929826	3.145583098227
0	3997	13232.50072559136	0.012592661534
0	4003	13248.221590721862	15.720865130502
0	4006	13256.461218299169	8.239627577307
0	4008	13264.425002266417	7.963783967248
0	4010	13266.043970313538	1.618968047121
0	4016	13285.120812472032	19.076842158494
0	4018	13292.727189606	7.606377133968
0	4024	13326.66490587429	33.93771626829
0	4027	13353.84245118668	27.17754531239
0	4030	13365.624051832734	11.781600646054
0	4032	13369.547280821291	3.923228988557
0	4034	13389.891140041335	20.343859220044
0	4037	13401.212687657109	11.321547615774
0	4039	13402.057473308739	0.84478565163
0	4042	13421.715273038853	19.657799730114
0	4046	13429.31682215109	7.601549112237
0	4049	13433.824580711757	4.507758560667
0	4051	13434.347610062725	0.523029350968
0	4054	13441.948827248136	7.601217185411
0	4056	13446.741178126496	4.79235087836
0	4058	13458.004089996798	11.262911870302
0	4062	13470.731346458303	12.727256461505
0	4066	13473.697458090581	2.966111632278
0	4068	13478.067313881833	4.369855791252
0	4071	13479.809909372403	1.74259549057
0	4073	13487.842113981981	8.032204609578
0	4076	13510.032261803909	22.190147821928
0	4081	13519.524748383118	9.492486579209
0	4084	13525.361485665229	5.836737282111
0	4086	13526.722063750458	1.360578085229
0	4093	13553.828601618478	27.10653786802
0	4095	13560.032326838349	6.203725219871
0	4098	13590.664851364911	30.632524526562
0	4100	13599.557486124501	8.89263475959
0	4103	13606.192407443154	6.634921318653
0	4106	13611.910009375894	5.71760193274
0	4109	13642.473504364815	30.563494988921
0	4114	13651.046521358084	8.573016993269
0	4116	13664.882471213113	13.835949855029
0	4119	13673.296636543365	8.414165330252
0	4121	13676.843300473892	3.546663930527
0	4123	13676.894824596645	0.051524122753
0	4126	13679.297537302273	2.402712705628
0	4130	13692.62100907507	13.323471772797
0	4133	13718.470791061698	25.849781986628
0	4136	13737.763761808668	19.29297074697
0	4140	13747.804775923332	10.041014114664
0	4142	13749.879761570687	2.074985647355
0	4144	13751.352131667163	1.472370096476
0	4149	13774.088258392481	22.736126725318
0	4151	13780.0335900799	5.945331687419
0	4153	13780.145683870117	0.112093790217
0	4155	13786.892031019783	6.746347149666
0	4158	13789.320729105078	2.428698085295
0	4164	13805.659954488562	16.339225383484
0	4166	13810.181496806844	4.521542318282
0	4169	13819.859480685902	9.677983879058
0	4172	13831.203836041926	11.344355356024
0	4177	13850.497454855351	19.293618813425
0	4179	13859.324707312362	8.827252457011
0	4181	13864.198854329578	4.874147017216
0	4185	13893.059904094737	28.861049765159
0	4187	13893.736256942009	0.676352847272
0	4190	13902.371757252922	8.635500310913
0	4194	13927.353653239372	24.98189598645
0	4196	13938.308343090792	10.95468985142
0	4199	13946.394040838111	8.085697747319
0	4203	13959.205289653185	12.811248815074
0	4206	13968.682950369425	9.47766071624
0	4208	13969.229398875222	0.546448505797
0	4210	13970.45050038173	1.221101506508
0	4212	13972.270406467968	1.819906086238
0	4217	13984.505439204626	12.235032736658
0	4221	13991.803966125542	7.298526920916
0	4223	13998.846663904063	7.042697778521
0	4225	14007.918189685186	9.071525781123
0	4229	14029.888576827841	21.970387142655
0	4231	14034.349039509109	4.460462681268
0	4233	14036.200677522361	1.851638013252
0	4236	14043.428486852854	7.227809330493
0	4241	14054.399153965441	10.970667112587
0	4244	14069.164885059764	14.765731094323
0	4246	14074.718981102693	5.554096042929
0	4248	14088.143333520552	13.424352417859
0	4252	14112.340790424785	24.197456904233
0	4254	14114.693287229855	2.35249680507
0	4257	14128.138888400865	13.44560117101
0	4261	14141.180067062672	13.041178661807
0	4263	14144.343447763322	3.16338070065
0	4265	14144.498396328203	0.154948564881
0	4269	14152.496721382679	7.998325054476
0	4272	14154.20255462116	1.705833238481
0	4276	14170.21160155334	16.00904693218
0	4281	14200.997416635685	30.785815082345
0	4283	14203.16922011929	2.171803483605
0	4285	14207.768363355207	4.599143235917
0	4287	14211.049840346603	3.281476991396
0	4290	14217.930346714658	6.880506368055
0	4292	14220.025988712271	2.095641997613
0	4295	14227.306887883245	7.280899170974
0	4297	14230.171682824904	2.864794941659
0	4301	14241.428564863444	11.25688203854
0	4304	14244.98335394714	3.554789083696
0	4306	14251.703566170107	6.720212222967
0	4308	14252.44915109609	0.745584925983
0	4310	14257.813767959302	5.364616863212
0	4318	14286.507581445316	28.693813486014
0	4320	14296.691920229817	10.184338784501
0	4322	14308.726199043672	12.034278813855
0	4329	14358.41078659976	49.684587556088
0	4331	14371.77029993823	13.35951333847
0	4334	14384.349188658672	12.578888720442
0	4336	14396.860623969985	12.511435311313
0	4338	14426.000946523314	29.140322553329
0	4340	14427.117245507065	1.116298983751
0	4344	14444.365984326473	17.248738819408
0	4350	14467.237477996758	22.871493670285
0	4354	14494.257700420977	27.020222424219
0	4357	14518.54705459798	24.289354177003
0	4359	14519.690258448948	1.143203850968
0	4361	14525.54011756566	5.849859116712
0	4366	14566.974602593653	41.434485027993
0	4369	14574.334049443668	7.359446850015
0	4372	14577.828969961696	3.494920518028
0	4374	14603.337981998174	25.509012036478
0	4376	14610.752013003943	7.414031005769
0	4378	14613.022273270197	2.270260266254
0	4380	14616.692010683517	3.66973741332
0	4383	14617.667757436198	0.975746752681
0	4386	14630.859612414705	13.191854978507
0	4389	14635.770743539851	4.911131125146
0	4391	14636.16522565666	0.394482116809
0	4396	14646.308052161138	10.142826504478
0	4399	14660.12624404682	13.818191885682
0	4403	14681.122464480786	20.996220433966
0	4407	14720.290175532947	39.167711052161
0	4410	14737.541246138026	17.251070605079
0	4412	14744.605693487287	7.064447349261
0	4415	14763.066082823017	18.46038933573
0	4417	14766.322177862163	3.256095039146
0	4421	14789.054029286575	22.731851424412
0	4423	14789.248848255141	0.194818968566
0	4425	14792.821925063192	3.573076808051
0	4428	14795.547706178575	2.725781115383
0	4431	14801.378562861465	5.83085668289
0	4436	14814.019631940688	12.641069079223
0	4438	14829.273355810865	15.253723870177
0	4442	14856.019888641054	26.746532830189
0	4444	14868.759437833691	12.739549192637
0	4449	14905.275258945356	36.515821111665
0	4452	14916.856317997496	11.58105905214
0	4454	14917.177221407826	0.32090341033
0	4456	14931.364789926839	14.187568519013
0	4458	14932.359940700113	0.995150773274
0	4460	14932.705075976278	0.345135276165
0	4464	14946.676538831721	13.971462855443
0	4469	14973.403216141079	26.726677309358
0	4471	14976.38095292545	2.977736784371
0	4475	14984.662196609864	8.281243684414
0	4477	14985.521666225713	0.859469615849
0	4480	14996.342470931784	10.820804706071
0	4482	14997.013065696686	0.670594764902
0	4489	15012.110816265364	15.097750568678
0	4491	15015.584084324501	3.473268059137
0	4493	15015.618287441256	0.034203116755
0	4496	15018.970670382042	3.352382940786
0	4498	15023.410283619256	4.439613237214
0	4500	15023.886493607994	0.476209988738
0	4503	15026.170956950605	2.284463342611
0	4507	15036.960497907795	10.78954095719
0	4509	15040.19655117719	3.236053269395
0	4511	15041.075607987142	0.879056809952
0	4513	15052.464889210404	11.389281223262
0	4520	15079.649974871014	27.18508566061
0	4523	15095.150830879461	15.500856008447
0	4525	15098.308868311092	3.158037431631
0	4528	15116.823003408156	18.514135097064
0	4530	15121.738604015553	4.915600607397
0	4532	15134.177577139141	12.438973123588
0	4536	15138.305500859003	4.127923719862
0	4539	15144.211856318437	5.906355459434
0	4541	15154.708997983345	10.497141664908
0	4544	15158.279091234189	3.570093250844
0	4549	15179.478725384627	21.199634150438
0	4553	15190.874777723136	11.396052338509
0	4556	15194.857930214415	3.983152491279
0	4559	15203.840169796556	8.982239582141
0	4561	15220.453508470354	16.613338673798
0	4563	15225.138727068219	4.685218597865
0	4566	15233.266758854129	8.12803178591
0	4569	15234.089690065305	0.822931211176
0	4571	15240.58843021855	6.498740153245
0	4574	15266.108658097685	25.520227879135
0	4576	15267.013476544544	0.904818446859
0	4578	15267.484547215217	0.471070670673
0	4585	15281.543963860943	14.059416645726
0	4588	15292.681538897662	11.137575036719
0	4590	15295.078197197927	2.396658300265
0	4593	15301.430693025356	6.352495827429
0	4599	15321.500837721747	20.070144696391
0	4601	15321.545867313681	0.045029591934
0	4603	15330.856812447535	9.310945133854
0	4605	15333.557419182697	2.700606735162
0	4610	15352.454450367796	18.897031185099
0	4612	15361.3806749044	8.926224536604
0	4615	15363.783562186905	2.402887282505
0	4617	15365.011441240253	1.227879053348
0	4621	15370.795637553554	5.784196313301
0	4624	15396.48646973961	25.690832186056
0	4627	15405.358246514866	8.871776775256
0	4629	15405.510487038157	0.152240523291
0	4632	15407.347229713873	1.836742675716
0	4634	15408.552614774559	1.205385060686
0	4638	15415.68402035927	7.131405584711
0	4642	15431.03358474339	15.34956438412
0	4645	15442.661224257467	11.627639514077
0	4648	15452.474402022512	9.813177765045
0	4651	15468.805737429404	16.331335406892
0	4654	15470.154984010266	1.349246580862
0	4657	15495.734181218883	25.579197208617
0	4663	15526.682098474685	30.947917255802
0	4665	15546.082973728019	19.400875253334
0	4667	15548.478382173757	2.395408445738
0	4670	15567.375449720254	18.897067546497
0	4673	15606.611739077644	39.23628935739
0	4675	15614.101298475992	7.489559398348
0	4677	15620.076464344735	5.975165868743
0	4684	15639.655422909983	19.578958565248
0	4686	15640.529662635477	0.874239725494
0	4688	15647.854982304933	7.325319669456
0	4690	15649.610364362188	1.755382057255
0	4692	15660.06972563723	10.459361275042
0	4696	15670.240718316996	10.170992679766
0	4698	15670.450661269641	0.209942952645
0	4702	15682.892111782741	12.4414505131
0	4706	15693.314445553955	10.422333771214
0	4710	15717.308473386001	23.994027832046
0	4712	15738.15502663139	20.846553245389
0	4714	15740.42016850497	2.26514187358
0	4717	15743.28930817599	2.86913967102
0	4720	15749.105983473034	5.816675297044
0	4723	15756.590067242232	7.484083769198
0	4725	15756.88245752648	0.292390284248
0	4727	15757.207217134465	0.324759607985
0	4731	15758.071778616473	0.864561482008
0	4733	15760.909473149071	2.837694532598
0	4738	15773.426444966367	12.516971817296
0	4742	15788.2048048734	14.778359907033
0	4744	15816.175273517632	27.970468644232
0	4746	15825.454110576813	9.278837059181
0	4752	15839.94308952356	14.488978946747
0	4754	15841.663267981457	1.720178457897
0	4756	15847.858945931601	6.195677950144
0	4759	15856.995006115184	9.136060183583
0	4762	15860.699135777587	3.704129662403
0	4764	15869.069256823271	8.370121045684
0	4771	15916.432478464173	47.363221640902
0	4773	15919.886978608807	3.454500144634
0	4775	15921.169171007172	1.282192398365
0	4777	15922.623808297067	1.454637289895
0	4779	15925.169151569395	2.545343272328
0	4784	15933.165108628582	7.995957059187
0	4787	15941.707613799071	8.542505170489
0	4790	15954.824726570506	13.117112771435
0	4792	15962.473521517191	7.648794946685
0	4797	15978.516286682824	16.042765165633
0	4799	15986.753583814554	8.23729713173
0	4802	15995.604396147709	8.850812333155
0	4804	15997.367231298409	1.7628351507
0	4806	16002.103774976258	4.736543677849
0	4810	16007.057019231162	4.953244254904
0	4813	16017.528215477447	10.471196246285
0	4816	16020.159663363499	2.631447886052
0	4819	16026.129728478338	5.970065114839
0	4823	16059.710569957425	33.580841479087
0	4828	16096.502731294785	36.79216133736
0	4830	16101.12601575989	4.623284465105
0	4832	16111.945351649002	10.819335889112
0	4835	16118.61227328787	6.666921638868
0	4837	16122.720351194404	4.108077906534
0	4839	16123.402548452594	0.68219725819
0	4842	16126.612991512536	3.210443059942
0	4846	16130.170264616832	3.557273104296
0	4851	16159.288809025615	29.118544408783
0	4853	16161.079560759057	1.790751733442
0	4855	16165.710912356603	4.631351597546
0	4860	16177.387324570927	11.676412214324
0	4862	16183.604852632981	6.217528062054
0	4865	16199.460203135368	15.855350502387
0	4868	16213.329463937425	13.869260802057
0	4871	16219.405966537657	6.076502600232
0	4873	16222.192389113088	2.786422575431
0	4875	16227.221973602862	5.029584489774
0	4879	16244.536370153253	17.314396550391
0	4882	16249.191872313131	4.655502159878
0	4885	16250.894204882885	1.702332569754
0	4890	16294.173350176569	43.279145293684
0	4892	16304.172851253619	9.99950107705
0	4894	16308.384622531977	4.211771278358
0	4899	16315.53299244152	7.148369909543
0	4903	16335.316210858227	19.783218416707
0	4905	16339.561782382894	4.245571524667
0	4907	16347.850881791591	8.289099408697
0	4910	16350.821147925736	2.970266134145
0	4912	16351.979450513207	1.158302587471
0	4915	16361.052699439783	9.073248926576
0	4917	16365.777874728943	4.72517528916
0	4922	16378.482588074916	12.704713345973
0	4924	16380.60678355368	2.124195478764
0	4926	16382.202872645322	1.596089091642
0	4928	16383.371766825319	1.168894179997
0	4931	16391.761199737865	8.389432912546
0	4933	16395.130634234849	3.369434496984
0	4939	16415.812797071816	20.682162836967
0	4943	16452.663554642217	36.850757570401
0	4948	16511.777279671285	59.113725029068
0	4951	16524.146158991884	12.368879320599
0	4953	16525.544854221506	1.398695229622
0	4955	16534.119258169222	8.574403947716
0	4957	16536.014365183337	1.895107014115
0	4959	16539.36177516098	3.347409977643
0	4962	16540.548522358626	1.186747197646
0	4965	16547.647779646329	7.099257287703
0	4969	16557.544348730704	9.896569084375
0	4972	16559.613389542514	2.06904081181
0	4977	16572.97315198498	13.359762442466
0	4979	16575.836910740095	2.863758755115
0	4981	16576.917961978486	1.081051238391
0	4986	16595.83312014539	18.915158166904
0	4988	16598.16716083562	2.33404069023
0	4991	16601.0160488532	2.84888801758
0	4995	16610.962443419406	9.946394566206
0	4997	16611.57591038938	0.613466969974
0	5001	16623.280882132291	11.704971742911
0	5005	16633.141748347324	9.860866215033
0	5007	16641.942199671334	8.80045132401
0	5011	16669.652130875344	27.70993120401
0	5013	16675.501344137962	5.849213262618
0	5016	16685.205439325355	9.704095187393
0	5019	16690.356012693894	5.150573368539
0	5021	16694.07778685888	3.721774164986
0	5025	16735.907704473313	41.829917614433
0	5027	16742.824908960541	6.917204487228
0	5029	16760.763463984879	17.938555024338
0	5034	16771.923489047793	11.160025062914
0	5036	16781.775570695999	9.852081648206
0	5038	16784.821823462105	3.046252766106
0	5041	16790.495175766173	5.673352304068
0	5043	16793.996076230011	3.500900463838
0	5046	16800.057244052648	6.061167822637
0	5048	16800.511378396353	0.454134343705
0	5053	16811.14733075747	10.635952361117
0	5055	16818.462431099536	7.315100342066
0	5058	16823.929302808107	5.466871708571
0	5061	16826.582984895996	2.653682087889
0	5066	16829.558377023425	2.975392127429
0	5068	16836.931801210223	7.373424186798
0	5071	16842.595250467721	5.663449257498
0	5073	16849.406937310817	6.811686843096
0	5077	16867.391455521721	17.984518210904
0	5079	16869.337201700413	1.945746178692
0	5082	16870.461578280136	1.124376579723
0	5085	16874.68070227546	4.219123995324
0	5089	16887.817219308784	13.136517033324
0	5092	16890.33825998589	2.521040677106
0	5094	16901.945486596186	11.607226610296
0	5098	16915.461921340252	13.516434744066
0	5101	16929.34381116258	13.881889822328
0	5103	16929.527868487707	0.184057325127
0	5106	16935.827684444752	6.299815957045
0	5110	16947.362110684324	11.534426239572
0	5113	16949.12741601651	1.765305332186
0	5115	16949.749469159698	0.622053143188
0	5117	16950.987720753886	1.238251594188
0	5122	16976.834051625656	25.84633087177
0	5125	16978.358123654061	1.524072028405
0	5127	16983.711609571389	5.353485917328
0	5130	16986.565245189695	2.853635618306
0	5133	16990.770887043467	4.205641853772
0	5139	17015.069033595137	24.29814655167
0	5142	17036.264418397974	21.195384802837
0	5144	17041.604993764276	5.340575366302
0	5147	17052.707113498549	11.102119734273
0	5149	17053.792172722196	1.085059223647
0	5151	17057.325045377477	3.532872655281
0	5154	17065.406818852004	8.081773474527
0	5156	17073.088530634854	7.68171178285
0	5160	17080.819771866752	7.731241231898
0	5162	17088.568545967644	7.748774100892
0	5164	17093.963618312219	5.395072344575
0	5168	17101.392852872225	7.429234560006
0	5170	17102.262292065601	0.869439193376
0	5175	17110.79180370081	8.529511635209
0	5177	17121.781471359088	10.989667658278
0	5183	17143.002385148339	21.220913789251
0	5185	17148.674554059082	5.672168910743
0	5188	17156.760095984334	8.085541925252
0	5191	17160.065065346002	3.304969361668
0	5196	17196.381520020412	36.31645467441
0	5199	17200.946419204809	4.564899184397
0	5201	17239.036277279948	38.089858075139
0	5203	17249.830301351825	10.794024071877
0	5206	17257.517726428	7.687425076175
0	5208	17264.475177857965	6.957451429965
0	5210	17276.324071716646	11.848893858681
0	5214	17292.493042511835	16.168970795189
0	5218	17298.183328561067	5.690286049232
0	5221	17301.07628493386	2.892956372793
0	5223	17306.728849392301	5.652564458441
0	5226	17307.35911473282	0.630265340519
0	5232	17325.517875225306	18.158760492486
0	5234	17328.142162677285	2.624287451979
0	5237	17342.356440824475	14.21427814719
0	5240	17347.475110674206	5.118669849731
0	5244	17358.554576524198	11.079465849992
0	5246	17360.791565725112	2.236989200914
0	5248	17362.369710423863	1.578144698751
0	5253	17401.954446858278	39.584736434415
0	5256	17407.574512583636	5.620065725358
0	5258	17415.059003766425	7.484491182789
0	5261	17421.12205002073	6.063046254305
0	5264	17435.014423101625	13.892373080895
0	5267	17448.822862659118	13.808439557493
0	5270	17457.989115186767	9.166252527649
0	5272	17463.48788421986	5.498769033093
0	5275	17468.909903692173	5.422019472313
0	5278	17470.907005201519	1.997101509346
0	5282	17486.495947384046	15.588942182527
0	5284	17490.352909995006	3.85696261096
0	5287	17509.902185757226	19.54927576222
0	5290	17523.027179862892	13.124994105666
0	5293	17527.536312632282	4.50913276939
0	5298	17541.92801885897	14.391706226688
0	5301	17559.152851234465	17.224832375495
0	5304	17580.017015837797	20.864164603332
0	5306	17584.058538547428	4.041522709631
0	5308	17587.383420279677	3.324881732249
0	5312	17600.258762074517	12.87534179484
0	5314	17608.155096862831	7.896334788314
0	5317	17612.087079125065	3.931982262234
0	5319	17612.0937079402	0.006628815135
0	5321	17613.345644518823	1.251936578623
0	5327	17629.948395816132	16.602751297309
0	5330	17646.437452489535	16.489056673403
0	5333	17653.55616525746	7.118712767925
0	5335	17654.567538827286	1.011373569826
0	5338	17661.076806778819	6.509267951533
0	5340	17667.030524929746	5.953718150927
0	5342	17668.327149868525	1.296624938779
0	5344	17669.862182487067	1.535032618542
0	5349	17685.899060778976	16.036878291909
0	5353	17696.998031882833	11.098971103857
0	5356	17705.03991092737	8.041879044537
0	5359	17717.196781785339	12.156870857969
0	5364	17742.623956946754	25.427175161415
0	5366	17744.928877381623	2.304920434869
0	5370	17771.089446915336	26.160569533713
0	5372	17772.414323795791	1.324876880455
0	5374	17774.520594240988	2.106270445197
0	5376	17774.529335321141	0.008741080153
0	5379	17790.927134351836	16.397799030695
0	5381	17791.067390274132	0.140255922296
0	5384	17794.261371994566	3.193981720434
0	5387	17802.547847866218	8.286475871652
0	5389	17818.923205720447	16.375357854229
0	5394	17834.678728299461	15.755522579014
0	5396	17837.321240750284	2.642512450823
0	5402	17857.38092748214	20.059686731856
0	5406	17864.843560085481	7.462632603341
0	5409	17878.470236713066	13.626676627585
0	5411	17892.308205860583	13.837969147517
0	5413	17898.165719361851	5.857513501268
0	5415	17902.849664814076	4.683945452225
0	5418	17921.238782776526	18.38911796245
0	5422	17934.205254348688	12.966471572162
0	5425	17946.842186993027	12.636932644339
0	5429	17970.725481268354	23.883294275327
0	5432	17993.398021583486	22.672540315132
0	5436	18003.754703636604	10.356682053118
0	5438	18004.999476604084	1.24477296748
0	5441	18015.704088771133	10.704612167049
0	5446	18053.709099876612	38.005011105479
0	5448	18056.963884958372	3.25478508176
0	5450	18057.251264289358	0.287379330986
0	5455	18096.023672617449	38.772408328091
0	5458	18104.761039595746	8.737366978297
0	5460	18111.131014441603	6.369974845857
0	5463	18117.817129155847	6.686114714244
0	5467	18137.557205113804	19.740075957957
0	5469	18143.525626869554	5.96842175575
0	5473	18157.329435614403	13.803808744849
0	5475	18166.42849252924	9.099056914837
0	5478	18199.865559391626	33.437066862386
0	5480	18202.064933436901	2.199374045275
0	5483	18213.37685904204	11.311925605139
0	5488	18236.498961484165	23.122102442125
0	5491	18245.454103310344	8.955141826179
0	5494	18248.993585417727	3.539482107383
0	5496	18249.878139404579	0.884553986852
0	5498	18263.082246202604	13.204106798025
0	5503	18267.791192231447	4.708946028843
0	5505	18268.680946622568	0.889754391121
0	5508	18278.468415917935	9.787469295367
0	5510	18278.537370883002	0.068954965067
0	5512	18297.486529051209	18.949158168207
0	5516	18323.789805051864	26.303276000655
0	5521	18342.345138085776	18.555333033912
0	5523	18359.801776012452	17.456637926676
0	5527	18387.103553342028	27.301777329576
0	5529	18390.294989248852	3.191435906824
0	5532	18410.736776054267	20.441786805415
0	5534	18417.31274121618	6.575965161913
0	5537	18422.261891125638	4.949149909458
0	5540	18424.600213185464	2.338322059826
0	5543	18431.75093121706	7.150718031596
0	5547	18448.500766269505	16.749835052445
0	5550	18459.321097589073	10.820331319568
0	5553	18466.212623063199	6.891525474126
0	5556	18489.344490144052	23.131867080853
0	5559	18530.705346082437	41.360855938385
0	5563	18551.62173689002	20.916390807583
0	5565	18552.506036264185	0.884299374165
0	5567	18554.447752322522	1.941716058337
0	5571	18573.961909116561	19.514156794039
0	5573	18579.015021074455	5.053111957894
0	5575	18581.953887599853	2.938866525398
0	5577	18583.379863115465	1.425975515612
0	5582	18593.808434557961	10.428571442496
0	5584	18599.6983621496	5.889927591639
0	5589	18648.034923044066	48.336560894466
0	5591	18652.789801886985	4.754878842919
0	5593	18655.731176057387	2.941374170402
0	5596	18670.032660066283	14.301484008896
0	5598	18674.91155777487	4.878897708587
0	5602	18682.764338814382	7.852781039512
0	5605	18699.44881517128	16.684476356898
0	5610	18709.93867236495	10.48985719367
0	5613	18721.022347999514	11.083675634564
0	5616	18727.498504155657	6.476156156143
0	5619	18738.218417201013	10.719913045356
0	5622	18747.072931881225	8.854514680212
0	5626	18753.313432023912	6.240500142687
0	5628	18781.757458571163	28.444026547251
0	5630	18800.383238115142	18.625779543979
0	5632	18806.128977488672	5.74573937353
0	5637	18820.327550302552	14.19857281388
0	5640	18829.629398622968	9.301848320416
0	5643	18844.887392679425	15.257994056457
0	5645	18853.440829775044	8.553437095619
0	5647	18856.136453461981	2.695623686937
0	5650	18864.779193685692	8.642740223711
0	5655	18878.195300712826	13.416107027134
0	5657	18887.737062736854	9.541762024028
0	5659	18888.997074102488	1.260011365634
0	5661	18899.49052252447	10.493448421982
0	5663	18900.275944038965	0.785421514495
0	5666	18916.688218994604	16.412274955639
0	5668	18929.726395374951	13.038176380347
0	5672	18938.358649126581	8.63225375163
0	5677	18962.492008904733	24.133359778152
0	5681	18982.894952164486	20.402943259753
0	5683	18986.701548304342	3.806596139856
0	5686	18996.112870957791	9.411322653449
0	5689	18998.724662935469	2.611791977678
0	5694	19020.060353853574	21.335690918105
0	5696	19035.526557285683	15.466203432109
0	5698	19046.621840008889	11.095282723206
0	5700	19050.102502028245	3.480662019356
0	5704	19055.676443923554	5.573941895309
0	5708	19065.530126117234	9.85368219368
0	5710	19066.465110619889	0.934984502655
0	5714	19078.659480075483	12.194369455594
0	5717	19091.018244769674	12.358764694191
0	5719	19098.692094821019	7.673850051345
0	5724	19119.324867109066	20.632772288047
0	5726	19124.535230377776	5.21036326871
0	5730	19148.611858971367	24.076628593591
0	5732	19162.239154684911	13.627295713544
0	5735	19170.985721122668	8.746566437757
0	5737	19186.830472681531	15.844751558863
0	5739	19189.819220892492	2.988748210961
0	5745	19217.836045509616	28.016824617124
0	5748	19242.640705925442	24.804660415826
0	5750	19256.228987958203	13.588282032761
0	5753	19267.996256012998	11.767268054795
0	5755	19273.393160699241	5.396904686243
0	5758	19275.834940466559	2.441779767318
0	5764	19302.229518604344	26.394578137785
0	5767	19335.099922996002	32.870404391658
0	5769	19349.296529590673	14.196606594671
0	5772	19369.973230190557	20.676700599884
0	5774	19372.473193123686	2.499962933129
0	5776	19375.093031996794	2.619838873108
0	5778	19380.788353785707	5.695321788913
0	5783	19397.086621613924	16.298267828217
0	5785	19397.138915008238	0.052293394314
0	5787	19400.824487824446	3.685572816208
0	5792	19409.244869561238	8.420381736792
0	5795	19419.026753813473	9.781884252235
0	5797	19419.530315092457	0.503561278984
0	5802	19445.445151447747	25.91483635529
0	5804	19446.032145003205	0.586993555458
0	5806	19449.779390946898	3.747245943693
0	5811	19467.548683359147	17.769292412249
0	5813	19476.911698502185	9.363015143038
0	5816	19486.038076913233	9.126378411048
0	5821	19512.469011186499	26.430934273266
0	5824	19537.850731718089	25.38172053159
0	5827	19573.891423520614	36.040691802525
0	5829	19579.825826793312	5.934403272698
0	5831	19581.042191327627	1.216364534315
0	5834	19601.360072873893	20.317881546266
0	5836	19610.524705671274	9.164632797381
0	5839	19618.864415080288	8.339709409014
0	5842	19627.118737539445	8.254322459157
0	5844	19630.484848753534	3.366111214089
0	5847	19635.845563889647	5.360715136113
0	5850	19649.222582242893	13.377018353246
0	5855	19681.377479920674	32.154897677781
0	5857	19688.019409192489	6.641929271815
0	5862	19720.698606583008	32.679197390519
0	5864	19738.30667035237	17.608063769362
0	5866	19755.659640268153	17.352969915783
0	5868	19758.087071654656	2.427431386503
[...]
4	11078	36656.958501742419	1
4	11083	36670.543572726241	0
4	11084	36683.847298219807	2
4	11087	36707.966005783351	0
4	11094	36741.934678327533	1
4	11097	36747.627859174261	2
4	11100	36758.108873869379	1
4	11101	36758.325116916227	2
4	11102	36758.550827244145	3
4	11105	36759.746991259658	1
4	11110	36805.264228759872	0
4	11111	36812.198137530031	2
4	11116	36856.298235359756	2
4	11117	36856.386335789233	0
4	11118	36862.895248904103	1
4	11125	36873.873943578731	1
4	11126	36885.480009528989	0
4	11129	36912.530817809798	2
4	11136	36924.754586127644	2
4	11137	36926.44485862738	0
4	11144	36957.225833115782	2
4	11145	36958.465280402039	4
4	11146	36966.026182938558	1
4	11149	36969.655815308057	3
4	11152	36995.391913496315	1
4	11159	37022.547111667046	0
4	11160	37027.197838144212	2
4	11163	37031.749455356471	3
4	11164	37043.341993475378	4
4	11167	37075.96861284743	1
4	11170	37082.609660819224	2
4	11171	37086.948959601228	1
4	11172	37090.093471026653	0
4	11177	37106.049279045294	0
4	11182	37117.735615611654	0
4	11185	37132.979995428973	1
4	11188	37146.07541172032	2
4	11191	37151.743948579734	2
4	11192	37158.004261986681	0
4	11193	37158.315819863479	1
4	11198	37188.136515119526	1
4	11203	37204.192238020858	2
4	11206	37215.252026666695	0
4	11215	37242.329756079866	2
4	11216	37249.132444237367	0
4	11221	37250.938694828023	0
4	11224	37259.070345966342	2
4	11231	37268.690397977341	4
4	11234	37277.390025509676	6
4	11239	37280.423706198646	5
4	11240	37287.75717720213	1
4	11241	37297.188554340703	4
4	11242	37301.114261053717	0
4	11243	37304.263844774108	2
4	11244	37314.999498442724	6
4	11245	37325.133658431295	3
4	11246	37329.65819380688	8
4	11247	37331.463592970375	7
4	11254	37345.163737046268	0
4	11257	37373.608199941703	2
4	11258	37384.28687566264	0
4	11263	37412.093856004405	0
4	11280	37451.04884185675	0
4	11281	37455.676715423903	1
4	11282	37458.706248044306	9
4	11283	37460.523494122039	8
4	11286	37461.906455357665	0
4	11291	37475.62059352067	0
4	11292	37475.652466940675	2
4	11293	37479.555008838068	6
4	11294	37481.51451926566	4
4	11297	37483.815973018039	0
4	11298	37484.253267970537	1
4	11299	37497.45618048288	3
4	11306	37509.220981844106	0
4	11307	37513.701132557993	2
4	11308	37523.61757332498	5
4	11313	37545.330313840224	2
4	11314	37549.378374095818	0
4	11315	37551.434251279545	1
4	11324	37565.018345687854	0
4	11333	37580.588846581786	2
4	11336	37583.003077287797	0
4	11337	37596.712206215339	1
4	11338	37597.579161075031	7
4	11339	37602.97833850285	6
4	11340	37603.002330329585	4
4	11341	37607.753585713217	3
4	11342	37608.139586036776	2
4	11345	37639.14153215664	0
4	11346	37650.605911414561	5
4	11353	37654.849088632689	2
4	11360	37673.038194223716	1
4	11365	37685.350238949468	4
4	11368	37692.647684582748	5
4	11369	37692.970820452691	2
4	11370	37696.545138041178	4
4	11371	37699.223797693237	1
4	11372	37720.782190606184	0
4	11373	37721.190029312419	3
4	11376	37737.467181312576	0
4	11383	37753.083659192395	2
4	11390	37762.832754560894	3
4	11393	37767.325882930602	0
4	11394	37790.025402720472	3
4	11395	37790.308561226538	4
4	11396	37794.105372977141	1
4	11401	37824.398503424634	2
4	11402	37827.509668977512	0
4	11403	37832.846431180564	1
4	11408	37859.610339143318	1
4	11413	37868.619063385691	2
4	11416	37877.352048878134	2
4	11421	37888.912680409314	1
4	11424	37901.921172222614	3
4	11427	37902.434356581911	0
4	11428	37907.731614709533	3
4	11431	37909.27368924229	0
4	11434	37915.157292574183	1
4	11439	37930.406821246112	3
4	11440	37930.761145896407	1
4	11441	37934.218218049941	2
4	11448	37968.431653032544	3
4	11451	37978.683839592907	2
4	11454	37987.43544010318	1
4	11461	38024.718439696905	1
4	11464	38032.329423986658	4
4	11465	38032.794111270944	5
4	11466	38032.982783620489	3
4	11467	38039.456275628122	1
4	11470	38044.225209504331	0
4	11477	38068.876090670999	4
4	11480	38072.88028922138	3
4	11481	38078.90574450584	4
4	11486	38080.367488249583	3
4	11489	38091.064728130574	2
4	11490	38092.876827869349	1
4	11493	38103.425887497179	3
4	11496	38106.37403118212	2
4	11497	38108.640722332736	4
4	11500	38116.316353500974	2
4	11503	38117.193402417539	0
4	11510	38124.951212082207	2
4	11513	38129.139169726358	0
4	11516	38138.121187239664	2
4	11517	38152.735402873219	4
4	11520	38158.992279882765	2
4	11527	38167.093433202944	1
4	11530	38174.574607188747	0
4	11531	38174.862153301012	4
4	11532	38176.970408473595	2
4	11535	38181.496883093912	5
4	11536	38188.86256734938	1
4	11537	38191.316812104825	3
4	11546	38210.168973935493	1
4	11551	38217.125044399234	2
4	11554	38221.74926056802	4
4	11561	38229.989956021202	6
4	11562	38236.628359136568	0
4	11563	38236.740069622264	3
4	11564	38242.725426801741	1
4	11565	38245.061456537175	2
4	11572	38265.297295010985	0
4	11573	38267.834667454519	7
4	11574	38269.193408578855	5
4	11575	38273.485953099587	4
4	11578	38277.410585561687	1
4	11585	38288.030965564107	0
4	11586	38290.527870206087	1
4	11587	38294.191540586098	4
4	11588	38295.191240762776	2
4	11591	38297.483541315091	0
4	11592	38311.133230033711	3
4	11603	38347.748846074	4
4	11606	38356.40557586226	2
4	11609	38359.60845048366	2
4	11610	38360.587415067603	0
4	11611	38365.754109972276	4
4	11612	38377.588186445892	1
4	11615	38401.886756790007	0
4	11620	38409.660583322247	3
4	11621	38414.400053538963	0
4	11624	38416.359937866756	0
4	11627	38425.6122907533	0
4	11630	38434.61043563311	1
4	11633	38445.898963066131	1
4	11634	38452.703159525892	0
4	11641	38470.19187316253	1
4	11644	38484.591106246541	0
4	11645	38484.89653279252	2
4	11650	38497.772795918086	1
4	11653	38503.795363787837	2
4	11654	38507.007639739148	0
4	11661	38521.535376372025	1
4	11664	38528.371206921973	0
4	11669	38546.246743030935	4
4	11672	38550.471756510862	3
4	11675	38565.985769024882	1
4	11678	38579.742889907052	3
4	11679	38580.721200531466	0
4	11684	38591.482439873119	3
4	11687	38595.697240741545	1
4	11688	38606.802491545867	0
4	11693	38621.413280905774	2
4	11694	38621.744667475531	0
4	11699	38633.923617190903	1
4	11700	38639.169807716035	4
4	11701	38660.86478278835	3
4	11704	38665.447047320427	1
4	11707	38669.580928589703	2
4	11710	38681.97438949423	0
4	11711	38685.783676723896	1
4	11712	38694.02097875383	2
4	11717	38720.502802971346	1
4	11718	38721.80544623035	0
4	11725	38749.711788410044	1
4	11732	38758.557695600485	0
4	11733	38759.964685718814	3
4	11734	38764.332994063913	4
4	11737	38770.254842017232	1
4	11738	38772.381405072393	0
4	11743	38798.433814598315	1
4	11744	38812.037227720318	2
4	11753	38844.881908795002	0
4	11756	38850.954111057493	0
4	11757	38868.779086211983	1
4	11766	38881.307242132768	1
4	11767	38884.415407734094	4
4	11768	38887.207299010011	6
4	11769	38889.029209986055	5
4	11774	38900.474368455345	3
4	11775	38901.150626612303	2
4	11776	38902.626416644358	1
4	11781	38917.213609007282	4
4	11782	38918.913879626841	0
4	11783	38926.895865212662	2
4	11786	38936.797460081688	0
4	11789	38953.586399049979	1
4	11790	38963.268879410127	0
4	11793	39035.387313552383	0
4	11798	39042.650933045459	0
4	11801	39061.745867801484	1
4	11804	39067.414105959798	0
4	11807	39086.120772135689	1
4	11808	39088.836376548179	0
4	11813	39110.69663339853	1
4	11820	39138.412593815309	3
4	11823	39158.320871805466	1
4	11824	39162.124939507816	3
4	11829	39178.044322829557	2
4	11832	39180.181723715174	0
4	11837	39183.95893487987	2
4	11840	39188.707789301861	2
4	11841	39192.765964528036	1
4	11846	39209.345762063611	2
4	11849	39226.059036958445	3
4	11850	39234.581256598628	1
4	11851	39243.940255878659	0
4	11852	39254.306416843647	4
4	11857	39268.943675921078	2
4	11864	39290.644157410848	4
4	11867	39302.208074135686	1
4	11868	39302.238901045798	4
4	11869	39306.259562255029	2
4	11874	39321.363111270395	3
4	11879	39338.217496885899	2
4	11882	39344.552127324303	0
4	11883	39349.604096435851	4
4	11888	39355.582857723523	3
4	11889	39357.532184191442	4
4	11890	39358.419225355915	1
4	11891	39377.263637323996	2
4	11898	39409.016162374483	3
4	11899	39410.02357455869	2
4	11906	39424.282760965159	2
4	11915	39437.291748810191	2
4	11916	39442.753880210682	7
4	11917	39452.127549496917	5
4	11918	39453.214755909557	6
4	11921	39457.594431935897	4
4	11924	39471.735687705761	3
4	11929	39483.186210813014	2
4	11930	39484.035957935346	5
4	11931	39489.146098288798	1
4	11932	39491.397326201433	4
4	11933	39491.598812411125	0
4	11940	39502.901332436604	1
4	11947	39525.589981837273	3
4	11948	39525.764870363702	4
4	11949	39525.920578499891	0
4	11950	39528.96221797719	5
4	11951	39536.52487251695	1
4	11956	39552.635866967957	2
4	11957	39565.844515083405	1
4	11968	39621.331498196924	4
4	11969	39621.661522341443	0
4	11970	39624.430282742877	5
4	11971	39636.24020177425	1
4	11974	39644.943726454156	0
4	11981	39678.063095964717	3
4	11982	39678.434806986139	0
4	11987	39696.839303383764	3
4	11988	39700.421550200478	4
4	11991	39718.45790432647	0
4	11992	39720.089377878088	1
4	11993	39732.131565243232	2
4	11998	39755.722788564291	1
4	11999	39756.148827468694	0
4	12000	39756.770395463417	3
4	12003	39784.204778065087	0
4	12008	39809.123497615882	0
4	12011	39832.149550181317	1
4	12018	39847.775986064417	1
4	12019	39859.021022595685	3
4	12020	39860.647426089322	2
4	12023	39866.738627541586	1
4	12028	39877.851074807817	1
4	12033	39887.078948869006	0
4	12034	39890.484566389437	2
4	12037	39909.898823011204	3
4	12040	39910.280165184548	0
4	12047	39930.6957109195	1
4	12048	39930.742711965186	0
4	12053	39946.740562764502	2
4	12058	39950.353378965887	3
4	12059	39954.420007390336	2
4	12060	39961.560658356606	1
4	12061	39964.276189194185	5
4	12062	39967.152380350794	0
4	12065	39989.38247944331	0
4	12072	39995.758615743303	1
4	12073	40005.091455633769	4
4	12078	40012.286886066237	0
4	12083	40024.224806444304	0
4	12084	40039.572353864786	2
4	12085	40066.505564055783	3
4	12088	40079.412662328428	0
4	12091	40105.27865593312	1
4	12092	40107.098813670891	0
4	12095	40128.659663742971	4
4	12098	40133.106056561026	1
4	12101	40136.067411933756	1
4	12106	40156.686023288434	0
4	12107	40160.293779000662	1
4	12110	40185.123163770135	2
4	12113	40186.86867245163	0
4	12118	40191.861656650445	1
4	12121	40199.308163518561	1
4	12126	40223.561134450132	0
4	12131	40227.231027574118	0
4	12132	40228.532950601629	4
4	12135	40231.813141586969	0
4	12142	40238.839817018126	3
4	12145	40240.770076721963	4
4	12150	40251.786751877076	3
4	12155	40263.202307675853	6
4	12156	40264.923738198697	0
4	12157	40274.477191438658	1
4	12158	40275.025613657166	5
4	12161	40297.737075896583	3
4	12164	40299.441266567614	1
4	12169	40311.945375731685	3
4	12172	40322.010954354553	3
4	12173	40325.18495908458	0
4	12178	40331.732978763695	7
4	12179	40332.724498796021	1
4	12180	40354.970028492286	4
4	12181	40356.052902541419	0
4	12182	40382.523357841995	2
4	12185	40399.006811544039	3
4	12194	40411.871641553933	4
4	12195	40432.355160334174	2
4	12196	40436.48288054524	0
4	12205	40447.024696028781	2
4	12206	40450.485981713061	0
4	12207	40456.942445751214	4
4	12208	40460.449714667254	3
4	12211	40469.574393339883	0
4	12214	40479.413017502242	1
4	12217	40489.434861381305	5
4	12218	40491.333373820116	0
4	12221	40523.281167614744	1
4	12224	40541.287866524492	1
4	12227	40554.608806884986	0
4	12230	40572.497741007769	0
4	12231	40584.223994575849	1
4	12236	40602.214045471266	1
4	12241	40608.274961497167	2
4	12244	40623.927173453684	2
4	12251	40641.113405109864	4
4	12252	40645.416164300746	0
4	12257	40654.164492220323	3
4	12258	40656.119200587932	0
4	12259	40656.303808488923	1
4	12264	40678.231264675234	4
4	12267	40682.386210115357	1
4	12268	40688.502376627678	3
4	12273	40692.640391064612	2
4	12274	40696.712603566847	3
4	12277	40701.032843769101	1
4	12278	40701.091016130743	2
4	12283	40704.023983030514	1
4	12284	40707.538317568432	2
4	12303	40744.061963632237	1
4	12306	40749.663680315235	1
4	12307	40752.918860913715	3
4	12310	40756.731907718694	5
4	12311	40756.739717652046	9
4	12314	40757.610189364227	4
4	12319	40760.392842509232	6
4	12320	40761.488532404427	0
4	12321	40762.58201062846	5
4	12326	40764.460709760284	8
4	12327	40769.842856685597	7
4	12332	40773.694909431395	0
4	12333	40774.154836822202	7
4	12334	40787.88360559751	3
4	12337	40791.364651090907	0
4	12340	40797.130416474571	5
4	12343	40804.972134298176	4
4	12348	40809.313983955799	3
4	12351	40821.031332050795	4
4	12354	40834.839753654977	2
4	12355	40836.559669905898	0
4	12356	40836.92189388209	4
4	12359	40852.599835577466	6
4	12362	40869.822110271281	0
4	12365	40891.691153228742	2
4	12368	40898.501840925954	3
4	12371	40906.377985793136	0
4	12372	40909.665503514849	1
4	12373	40910.095374243392	5
4	12376	40911.855678012314	2
4	12383	40927.182268465789	2
4	12384	40928.107092399317	1
4	12391	40941.180747529286	2
4	12394	40946.84997755695	2
4	12395	40951.085062773768	0
4	12398	40957.818657778471	4
4	12403	40970.617854185034	2
4	12404	40976.337131567584	4
4	12407	40978.124938558936	2
4	12416	40987.131409102651	6
4	12419	40991.757401277853	4
4	12420	40993.139840858578	3
4	12423	41006.624073547588	6
4	12424	41006.818255584675	7
4	12427	41008.464989524669	4
4	12428	41009.136959494696	5
4	12433	41024.242053188928	4
4	12434	41032.517471070697	3
4	12437	41042.822820681747	0
4	12440	41056.679057356471	2
4	12441	41058.104620995484	5
4	12442	41060.253717873602	0
4	12445	41064.560392425991	1
4	12448	41079.333315336144	0
4	12449	41081.316477653546	3
4	12450	41085.690532087187	1
4	12453	41095.279979562553	0
4	12458	41119.153681112199	1
4	12463	41171.532721829677	0
4	12464	41178.18292727651	1
4	12469	41193.509016410755	2
4	12472	41197.982252671681	0
4	12473	41213.37337471859	2
4	12478	41221.839694130298	1
4	12483	41227.691412315527	3
4	12486	41237.465302763701	3
4	12487	41240.55523096814	0
4	12488	41245.297912412944	1
4	12491	41258.358433441694	2
4	12494	41262.415014069552	0
4	12499	41266.789631160612	0
4	12502	41289.885385539615	1
4	12503	41297.561297772879	2
4	12504	41298.061974573301	0
4	12513	41325.531419720455	0
4	12514	41330.961846801332	3
4	12515	41332.351163666326	2
4	12516	41332.379833795709	1
4	12523	41358.572367036832	0
4	12526	41372.79422397969	2
4	12527	41374.811162170949	0
4	12534	41413.157474860433	2
4	12543	41440.292205306203	3
4	12546	41446.165465137052	3
4	12547	41450.311286490848	4
4	12548	41467.097871984188	0
4	12551	41478.34108251278	0
4	12554	41484.336581846701	6
4	12555	41486.596963623988	1
4	12556	41488.947421407437	0
4	12561	41496.695399263218	2
4	12566	41518.105710761089	5
4	12567	41519.44159854171	2
4	12572	41530.393792889247	1
4	12579	41542.993908432075	4
4	12580	41543.908030295048	1
4	12581	41547.06257205287	0
4	12584	41553.148463651686	2
4	12585	41554.065158508423	6
4	12590	41584.880665174196	5
4	12591	41588.636355156747	3
4	12592	41592.219056219593	1
4	12599	41606.390451849577	2
4	12604	41621.64358279811	2
4	12605	41622.049326480586	3
4	12606	41623.881539785115	0
4	12607	41625.677694194576	4
4	12610	41633.514303281379	5
4	12613	41635.2444649796	1
4	12616	41643.758083948498	2
4	12621	41669.909399590762	1
4	12626	41689.946558553131	2
4	12635	41704.18400884836	2
4	12638	41707.001763074419	5
4	12639	41707.739712980568	0
4	12640	41708.143838369832	2
4	12643	41720.55548066847	0
4	12644	41724.38235600503	4
4	12645	41735.800393761097	6
4	12646	41746.793147694225	1
4	12651	41753.840620681798	1
4	12654	41761.745660531323	0
4	12657	41772.36552443185	0
4	12662	41778.335238386757	3
4	12663	41782.513984107014	7
4	12672	41807.953300455511	3
4	12673	41808.469358789678	2
4	12678	41819.846918263585	6
4	12681	41822.965281371493	3
4	12684	41828.277650958178	5
4	12685	41831.710609281004	4
4	12686	41833.077876217693	3
4	12687	41833.623742971009	1
4	12692	41848.03233975337	2
4	12697	41864.169957935323	0
4	12700	41868.229168225937	4
4	12701	41868.575894506853	6
4	12702	41873.667763634824	2
4	12703	41883.323052903706	0
4	12706	41903.090987928775	0
4	12709	41907.361670249505	1
4	12716	41925.96692268987	4
4	12717	41928.12075337098	3
4	12718	41930.336966263411	2
4	12721	41937.169944883936	0
4	12722	41937.612751841426	2
4	12731	41958.767216830193	1
4	12732	41959.806706182304	2
4	12733	41961.70058801736	0
4	12734	41966.640613360654	4
4	12739	41975.478006594454	1
4	12744	41990.038960979899	0
4	12747	41994.380955000031	3
4	12752	42004.348112418738	1
4	12753	42004.61879136756	2
4	12754	42004.786456065069	3
4	12755	42007.149648651635	0
4	12762	42029.834402865713	4
4	12763	42045.418355047983	1
4	12764	42050.914949528871	0
4	12767	42064.855728700608	2
4	12770	42074.528566266087	1
4	12775	42104.040685038448	2
4	12778	42128.221983413345	2
4	12785	42136.234535389295	1
4	12788	42142.118889411413	3
4	12793	42158.060326016728	1
4	12796	42170.772282284845	1
4	12797	42172.384095407784	0
4	12798	42174.003923267682	2
4	12801	42177.451448263892	4
4	12806	42222.576301295676	1
4	12809	42223.950964638915	0
4	12810	42229.670163237875	2
4	12811	42232.463460370341	5
4	12814	42248.225986447589	3
4	12819	42254.245366349088	0
4	12820	42265.359380707279	1
4	12825	42267.585302267209	0
4	12830	42288.841955681989	4
4	12831	42289.396880401924	3
4	12836	42292.769122460273	3
4	12837	42297.539422008903	2
4	12840	42314.396878883741	1
4	12843	42318.332228342123	4
4	12844	42322.534484780243	1
4	12847	42344.974771741237	0
4	12854	42353.396839729111	3
4	12859	42361.455655528641	5
4	12860	42362.497840461537	2
4	12863	42365.147611371877	2
4	12866	42370.242658744834	4
4	12867	42377.217841801422	0
4	12872	42395.314999899735	0
4	12873	42397.767859462804	4
4	12874	42399.692498724672	2
4	12875	42400.304058274783	3
4	12882	42405.255981011504	0
4	12883	42409.548585705986	1
4	12888	42421.408864702581	0
4	12891	42425.035020558164	2
4	12892	42433.952965011646	0
4	12897	42438.955223729241	3
4	12898	42450.011096834397	0
4	12901	42460.358074708769	1
4	12908	42481.373350103598	4
4	12909	42481.803973098559	0
4	12912	42489.006904266838	2
4	12913	42493.503758291859	0
4	12914	42496.252471508486	1
4	12919	42506.729130122397	0
4	12930	42529.462373341633	0
4	12933	42535.140596940163	6
4	12934	42535.142556887281	5
4	12937	42540.646695601813	1
4	12938	42544.359696473833	3
4	12939	42553.651516770877	5
4	12942	42557.779153743872	2
4	12945	42558.885096837362	4
4	12950	42569.914779019021	1
4	12951	42570.327496969777	0
4	12958	42607.976853974904	3
4	12959	42612.779525365528	0
4	12960	42621.743374953202	4
4	12963	42641.351057895434	2
4	12968	42649.61946692664	1
4	12969	42657.824494401103	5
4	12972	42670.612225854547	2
4	12973	42671.94466169281	0
4	12976	42677.873556820027	1
4	12987	42723.949034255	2
4	12988	42731.309438048863	3
4	12993	42738.53180841795	5
4	12996	42745.564623771469	1
4	12997	42748.211093018415	3
4	13000	42753.668953365408	5
4	13001	42755.512307012504	2
4	13004	42762.903306857855	4
4	13005	42769.083740444727	1
4	13008	42778.173422198124	1
4	13011	42783.837820243228	0
4	13012	42795.056862809637	6
4	13013	42798.352488947289	2
4	13020	42824.384295247569	1
4	13023	42827.865068638098	3
4	13030	42843.498784458826	4
4	13031	42845.387379405391	0
4	13032	42848.301311910932	2
4	13033	42852.368726890962	1
4	13034	42856.544938587275	5
4	13037	42857.017295984304	0
4	13042	42871.899213793093	3
4	13043	42872.075892319063	1
4	13044	42878.478011250592	0
4	13049	42887.445179484983	0
4	13056	42919.419961947712	1
4	13063	42940.653442427513	5
4	13064	42942.54049637453	2
4	13065	42945.983711420794	0
4	13066	42950.42232306811	1
4	13069	42970.439026134427	0
4	13072	42987.999314763567	4
4	13075	43000.885176271417	0
4	13088	43024.149066052385	0
4	13089	43030.759867394342	6
4	13090	43030.921573053387	3
4	13091	43036.376566544973	1
4	13092	43050.478187054631	4
4	13093	43058.146233036062	2
4	13098	43061.439635038899	5
4	13105	43074.797019879497	2
4	13106	43075.503357138318	4
4	13107	43076.636263533831	1
4	13108	43078.077595561151	7
4	13115	43103.828263463937	2
4	13116	43107.504022352986	3
4	13123	43122.564221510866	3
4	13124	43124.000618767956	0
4	13131	43128.156138736592	0
4	13132	43128.535710459241	3
4	13133	43132.129430319621	2
4	13140	43158.123779808587	0
4	13141	43160.438123444295	1
4	13142	43162.926682596891	2
4	13145	43168.771262032502	4
4	13146	43169.012647718385	3
4	13147	43180.495965148155	6
4	13156	43197.179422090139	5
4	13157	43198.709502867802	1

