version 2
run General-2-20180204-17:50:47-16024
attr configname General
attr datetime 20180204-17:50:47
attr experiment General
attr inifile carrefour.ini
attr iterationvars $0=30
attr iterationvarsf 30-
attr measurement $0=30
attr network Carrefour
attr processid 16024
attr repetition 0
attr replication #0
attr resultdir results
attr runnumber 2
attr seedset 2
param **.lambda 30
param **.numeroCasse 2
param **.mu 30
param **.tipoSimulazione 0
param **.delay 3
param **.ServiceType 1
param **.varianceLogNormal 0.25
param **.meanLogNormal 30

vector 0 Carrefour.coda 1_Lambda:vector ETV
attr source Interarrivals
attr title "1/lambda, vector"
vector 1 Carrefour.coda E_Nq:vector ETV
attr source QueueLenght
attr title "E[Nq], vector"
vector 2 Carrefour.coda E_W:vector ETV
attr source Queuing
attr title "E[W], vector"
vector 3 Carrefour.decisore E_R:vector ETV
attr source TotalTime
attr title "E[R], vector"
vector 4 Carrefour.decisore ActiveTillStat:vector ETV
attr source ActiveTill
attr title "Active Till, vector"
0	1	7	7
0	4	63.968505563477	56.968505563477
0	6	89.114315483357	25.14580991988
0	8	95.718155992888	6.603840509531
0	11	98.84195235694	3.123796364052
0	13	101.470746558235	2.628794201295
0	20	146.556614971337	45.085868413102
0	25	193.541986496533	46.985371525196
0	28	205.063242417296	11.521255920763
0	32	269.750107727229	64.686865309933
0	35	305.951315751561	36.201208024332
0	37	313.107648438788	7.156332687227
0	39	323.428925978764	10.321277539976
0	40	331.063049673745	7.634123694981
0	44	343.931590405205	12.86854073146
0	45	346.536647951608	2.605057546403
0	49	358.342961931196	11.806313979588
0	61	450.894336346705	92.551374415509
0	63	462.290745274645	11.39640892794
0	66	484.706440776524	22.415695501879
0	69	506.457330515024	21.7508897385
0	73	560.615148979604	54.15781846458
0	75	572.021019602892	11.405870623288
0	78	606.406832011608	34.385812408716
0	82	699.39467026757	92.987838255962
0	85	774.938088815748	75.543418548178
0	87	787.850075226751	12.911986411003
0	89	797.238168164757	9.388092938006
0	93	820.900731976926	23.662563812169
0	99	874.50260348827	53.601871511344
0	102	1035.735347978807	161.23274449054
0	104	1047.215176454308	11.479828475501
0	106	1068.293400054469	21.078223600161
0	111	1098.236244937351	29.942844882882
0	115	1159.824617014314	61.588372076963
0	117	1189.223733123245	29.399116108931
0	120	1198.087449601746	8.863716478501
0	122	1204.345269587753	6.257819986007
0	127	1240.952411639729	36.607142051976
0	131	1279.85600732408	38.903595684351
0	133	1298.223840352577	18.367833028497
0	136	1325.433459144057	27.20961879148
0	140	1369.353897160655	43.920438016598
0	142	1401.80428207627	32.450384915615
0	145	1408.819056472027	7.014774395757
0	147	1414.030596915283	5.211540443256
0	148	1423.392226729465	9.361629814182
0	157	1477.47487767829	54.082650948825
0	160	1540.215653335866	62.740775657576
0	163	1583.177234461371	42.961581125505
0	164	1583.628502525265	0.451268063894
0	167	1604.034891390829	20.406388865564
0	173	1668.213067621448	64.178176230619
0	176	1709.71970327242	41.506635650972
0	179	1778.132548494534	68.412845222114
0	181	1804.190052895054	26.05750440052
0	184	1821.830500916311	17.640448021257
0	187	1843.704719198067	21.874218281756
0	191	1898.346220049956	54.641500851889
0	193	1908.982283576177	10.636063526221
0	195	1930.607253001109	21.624969424932
0	200	1964.320406127525	33.713153126416
0	203	1973.330624796818	9.010218669293
0	207	2007.709539384548	34.37891458773
0	209	2013.599681035352	5.890141650804
0	211	2021.498757738339	7.899076702987
0	215	2043.466406999257	21.967649260918
0	216	2046.796493724248	3.330086724991
0	220	2055.75660532709	8.960111602842
0	224	2080.62021451258	24.86360918549
0	228	2092.992702299662	12.372487787082
0	237	2159.942145682172	66.94944338251
0	240	2221.665305501877	61.723159819705
0	243	2270.531718237312	48.866412735435
0	244	2271.938565565806	1.406847328494
0	248	2307.159637449806	35.221071884
0	252	2373.959055184341	66.799417734535
0	254	2380.351918588124	6.392863403783
0	256	2388.646141803096	8.294223214972
0	260	2416.218777591012	27.572635787916
0	264	2429.989524785021	13.770747194009
0	265	2439.563195483119	9.573670698098
0	274	2501.27469302826	61.711497545141
0	277	2541.915215779776	40.640522751516
0	279	2570.936792227059	29.021576447283
0	283	2615.422755657039	44.48596342998
0	285	2620.15797679451	4.735221137471
0	289	2660.4802047843	40.32222798979
0	292	2732.86461547946	72.38441069516
0	295	2796.083693504352	63.219078024892
0	298	2865.35633581675	69.272642312398
0	300	2886.621099561758	21.264763745008
0	303	2911.790703518214	25.169603956456
0	306	2925.85846637269	14.067762854476
0	309	2946.70213664364	20.84367027095
0	311	2960.355399407571	13.653262763931
0	317	3030.178382390834	69.822982983263
0	320	3068.036584607256	37.858202216422
0	322	3090.590604078671	22.554019471415
0	326	3164.008907021337	73.418302942666
0	328	3190.375886730445	26.366979709108
0	329	3194.613159293241	4.237272562796
0	333	3197.397183194915	2.784023901674
0	340	3336.249099675946	138.85191648103
0	342	3344.728977148249	8.479877472303
0	345	3369.96401568199	25.235038533741
0	347	3378.580821647169	8.616805965179
0	353	3430.336778523539	51.75595687637
0	355	3443.858545049969	13.52176652643
0	357	3460.721687702737	16.863142652768
0	360	3466.834534095368	6.112846392631
0	362	3479.36981015666	12.535276061292
0	365	3483.805373283153	4.435563126493
0	367	3487.158302041666	3.352928758513
0	368	3496.451964910498	9.293662868832
0	378	3535.591687357307	39.139722446809
0	379	3543.567485385349	7.975798028042
0	382	3553.978177115555	10.410691730206
0	393	3616.489884355997	62.511707240442
0	398	3634.26880085283	17.778916496833
0	400	3642.147504673267	7.878703820437
0	401	3646.79069695098	4.643192277713
0	407	3668.622188477261	21.831491526281
0	413	3708.555040271643	39.932851794382
0	417	3760.093925770311	51.538885498668
0	420	3798.447367413162	38.353441642851
0	422	3814.768791881214	16.321424468052
0	424	3829.690143710735	14.921351829521
0	430	3891.826466046797	62.136322336062
0	432	3908.717091810969	16.890625764172
0	436	3945.966068793554	37.248976982585
0	439	3995.916886794701	49.950818001147
0	442	4029.940681376143	34.023794581442
0	444	4043.236731732696	13.296050356553
0	448	4081.517606562969	38.280874830273
0	451	4156.835676128939	75.31806956597
0	454	4224.629839737235	67.794163608296
0	456	4231.425543263914	6.795703526679
0	458	4246.390623587193	14.965080323279
0	463	4274.113694780456	27.723071193263
0	464	4276.435592725024	2.321897944568
0	466	4281.70365374603	5.268061021006
0	474	4325.930494007223	44.226840261193
0	476	4330.044022923629	4.113528916406
0	477	4330.803308505359	0.75928558173
0	478	4331.288322047411	0.485013542052
0	482	4358.396024584083	27.107702536672
0	486	4380.463645400823	22.06762081674
0	495	4421.173904323338	40.710258922515
0	500	4452.824854123402	31.650949800064
0	505	4475.16548020732	22.340626083918
0	506	4477.315072242243	2.149592034923
0	508	4490.019058149118	12.703985906875
0	517	4550.203617068103	60.184558918985
0	519	4562.946089776745	12.742472708642
0	521	4577.079400762656	14.133310985911
0	522	4577.665895344429	0.586494581773
0	528	4604.427588349465	26.761693005036
0	530	4607.960535236014	3.532946886549
0	538	4653.260778502803	45.300243266789
0	541	4677.196610101085	23.935831598282
0	542	4679.714801650596	2.518191549511
0	547	4709.593668409691	29.878866759095
0	550	4717.08209712613	7.488428716439
0	553	4719.109748390358	2.027651264228
0	556	4735.974011490509	16.864263100151
0	557	4739.442507837227	3.468496346718
0	564	4782.715787103725	43.273279266498
0	571	4800.61583990933	17.900052805605
0	576	4824.016438819269	23.400598909939
0	578	4849.739663290532	25.723224471263
0	582	4854.121952710064	4.382289419532
0	583	4858.353138717971	4.231186007907
0	592	4922.822769708968	64.469630990997
0	594	4930.346000892503	7.523231183535
0	595	4932.288875765591	1.942874873088
0	597	4947.183121766661	14.89424600107
0	605	4990.136406657686	42.953284891025
0	608	5015.84061559147	25.704208933784
0	609	5015.918090730571	0.077475139101
0	614	5033.955753314663	18.037662584092
0	617	5051.990284054859	18.034530740196
0	624	5142.608141814297	90.617857759438
0	627	5214.32590204462	71.717760230323
0	629	5231.628290654961	17.302388610341
0	630	5235.927282480745	4.298991825784
0	635	5253.380368361355	17.45308588061
0	641	5307.201841782216	53.821473420861
0	642	5309.072694042404	1.870852260188
0	647	5346.162678018506	37.089983976102
0	649	5352.610862619732	6.448184601226
0	653	5394.487611324147	41.876748704415
0	654	5394.570767791517	0.08315646737
0	657	5408.193922491935	13.623154700418
0	663	5476.89501797234	68.701095480405
0	666	5511.779506269885	34.884488297545
0	668	5516.761747813463	4.982241543578
0	672	5688.812193409158	172.0504455957
0	674	5696.889016060808	8.07682265165
0	676	5705.499340496706	8.610324435898
0	681	5746.030350767526	40.53101027082
0	685	5796.514157119991	50.483806352465
0	688	5844.18371246381	47.669555343819
0	689	5844.235091219346	0.051378755536
0	692	5870.185428106351	25.950336887005
0	693	5873.955336461252	3.769908354901
0	702	5929.595665401618	55.640328940366
0	705	5971.126976873242	41.531311471624
0	707	5979.927877573206	8.800900699964
0	709	5989.468241850803	9.540364277597
0	710	5999.730414138137	10.262172287334
0	714	6012.33645007272	12.606035934583
0	722	6059.262527612713	46.926077539993
0	725	6072.757482282469	13.494954669756
0	726	6075.304386795314	2.546904512845
0	728	6091.154493818336	15.850107023022
0	737	6194.854613598216	103.70011977988
0	739	6202.08285786983	7.228244271614
0	740	6205.061907487121	2.979049617291
0	742	6208.292415701922	3.230508214801
0	743	6219.116399957856	10.823984255934
0	747	6234.715363404119	15.598963446263
0	759	6318.108967200483	83.393603796364
0	761	6322.365231123564	4.256263923081
0	763	6340.802808098119	18.437576974555
0	768	6358.70700707377	17.904198975651
0	772	6416.355447194753	57.648440120983
0	773	6418.520356374848	2.164909180095
0	778	6482.556421658613	64.036065283765
0	779	6484.064000726843	1.50757906823
0	783	6517.54717442667	33.483173699827
0	787	6586.570569496292	69.023395069622
0	789	6594.928586229114	8.358016732822
0	793	6690.036645440231	95.108059211117
0	795	6693.625849673061	3.58920423283
0	797	6714.469439919332	20.843590246271
0	803	6772.531020776256	58.061580856924
0	806	6828.542458493796	56.01143771754
0	808	6831.733049313793	3.190590819997
0	811	6866.844235335549	35.111186021756
0	814	6874.047700632689	7.20346529714
0	817	6904.818896165677	30.771195532988
0	820	6916.241633661921	11.422737496244
0	821	6918.595726261401	2.35409259948
0	827	6954.113585287301	35.5178590259
0	831	7013.626989767535	59.513404480234
0	833	7018.252362554643	4.625372787108
0	834	7022.14816861756	3.895806062917
0	840	7067.881233467639	45.733064850079
0	843	7100.333648499108	32.452415031469
0	847	7138.382561310775	38.048912811667
0	849	7148.032378900368	9.649817589593
0	853	7189.172164149376	41.139785249008
0	855	7202.516788976055	13.344624826679
0	857	7215.629589545956	13.112800569901
0	861	7225.747041159004	10.117451613048
0	867	7318.000359669207	92.253318510203
0	869	7335.784710879388	17.784351210181
0	873	7429.104070661921	93.319359782533
0	876	7509.842712677976	80.738642016055
0	878	7518.940598046244	9.097885368268
0	882	7641.58103885627	122.64044081003
0	884	7649.497742624124	7.916703767854
0	885	7649.840106659695	0.342364035571
0	887	7673.900943818187	24.060837158492
0	891	7677.526124745187	3.625180927
0	898	7714.096269131931	36.570144386744
0	904	7776.94167839084	62.845409258909
0	907	7863.09746593663	86.15578754579
0	909	7878.324550014195	15.227084077565
0	911	7886.136731673303	7.812181659108
0	912	7887.974361772944	1.837630099641
0	920	7931.153209500563	43.178847727619
0	922	7944.463260691397	13.310051190834
0	928	8039.278793838461	94.815533147064
0	930	8042.96091226828	3.682118429819
0	933	8074.65129890936	31.69038664108
0	937	8140.987580680412	66.336281771052
0	940	8274.030609787319	133.04302910691
0	943	8311.463441275831	37.432831488512
0	945	8336.596852354536	25.133411078705
0	947	8342.951829791564	6.354977437028
0	950	8345.201302408376	2.249472616812
0	957	8434.82213167962	89.620829271244
0	959	8451.134155411504	16.312023731884
0	961	8463.192167228072	12.058011816568
0	964	8469.388810450759	6.196643222687
0	966	8474.275892074806	4.887081624047
0	967	8477.881813164051	3.605921089245
0	970	8487.509679631732	9.627866467681
0	972	8495.121528544997	7.611848913265
0	973	8496.102021815015	0.980493270018
0	977	8506.150681857297	10.048660042282
0	978	8520.426313386723	14.275631529426
0	985	8555.557662632194	35.131349245471
0	998	8616.43014122702	60.872478594826
0	1001	8631.901750766891	15.471609539871
0	1010	8672.971176211343	41.069425444452
0	1012	8694.505978854667	21.534802643324
0	1017	8720.532213503691	26.026234649024
0	1021	8785.501400956806	64.969187453115
0	1023	8816.555871615949	31.054470659143
0	1027	8853.924479049388	37.368607433439
0	1030	8907.860204200286	53.935725150898
0	1032	8913.000298362895	5.140094162609
0	1036	8996.571367825839	83.571069462944
0	1038	9008.19061740928	11.619249583441
0	1042	9061.80916398596	53.61854657668
0	1045	9149.417896146617	87.608732160657
0	1047	9154.969501642946	5.551605496329
0	1049	9164.540244366832	9.570742723886
0	1054	9205.753934023207	41.213689656375
0	1058	9288.85993950855	83.106005485343
0	1061	9347.571804891279	58.711865382729
0	1064	9402.201022532152	54.629217640873
0	1067	9454.711876218422	52.51085368627
0	1069	9484.80919371551	30.097317497088
0	1072	9495.187779252471	10.378585536961
0	1076	9619.408207940424	124.22042868795
0	1078	9630.939380597251	11.531172656827
0	1081	9662.536761519848	31.597380922597
0	1082	9664.341160810879	1.804399291031
0	1087	9675.787341196358	11.446180385479
0	1088	9677.720475533777	1.933134337419
0	1089	9687.001664987573	9.281189453796
0	1096	9725.534293805147	38.532628817574
0	1099	9732.475560416517	6.94126661137
0	1109	9848.062263245911	115.58670282939
0	1111	9860.151377917049	12.089114671138
0	1115	9898.699421251144	38.548043334095
0	1118	9982.500429083401	83.801007832257
0	1121	10028.642608850376	46.142179766975
0	1123	10033.723255976999	5.080647126623
0	1125	10045.127007766815	11.403751789816
0	1131	10106.998832700417	61.871824933602
0	1133	10116.893246027423	9.894413327006
0	1137	10156.944734106083	40.05148807866
0	1139	10160.688992401891	3.744258295808
0	1141	10175.872681996613	15.183689594722
0	1142	10183.005692597132	7.133010600519
0	1148	10202.245787383822	19.24009478669
0	1150	10214.884444412425	12.638657028603
0	1151	10216.159979370919	1.275534958494
0	1157	10237.464399738086	21.304420367167
0	1159	10240.098611493609	2.634211755523
0	1168	10290.515033248811	50.416421755202
0	1170	10297.204335413182	6.689302164371
0	1174	10317.08925999591	19.884924582728
0	1182	10372.249905145158	55.160645149248
0	1185	10390.297471691687	18.047566546529
0	1187	10403.505372087699	13.207900396012
0	1193	10458.615283236899	55.1099111492
0	1196	10535.308404224798	76.693120987899
0	1199	10594.911632903027	59.603228678229
0	1200	10595.731902933547	0.82027003052
0	1205	10655.531746713174	59.799843779627
0	1207	10660.584855299129	5.053108585955
0	1211	10703.450107726859	42.86525242773
0	1214	10787.869974278493	84.419866551634
0	1217	10827.017020461854	39.147046183361
0	1219	10846.945219167194	19.92819870534
0	1220	10851.149037610813	4.203818443619
0	1225	10866.574291329211	15.425253718398
0	1226	10867.185180661674	0.610889332463
0	1227	10875.07624972325	7.891069061576
0	1228	10880.631606211877	5.555356488627
0	1235	10905.177537185447	24.54593097357
0	1239	10924.224086852775	19.046549667328
0	1249	10966.73994532169	42.515858468915
0	1254	11020.215580077512	53.475634755822
0	1257	11029.255227122834	9.039647045322
0	1259	11051.29441311035	22.039185987516
0	1265	11088.444910070233	37.150496959883
0	1267	11093.092392322588	4.647482252355
0	1270	11121.897525927045	28.805133604457
0	1273	11132.276088531271	10.378562604226
0	1274	11135.771171421293	3.495082890022
0	1276	11146.130740902332	10.359569481039
0	1279	11155.745019730242	9.61427882791
0	1287	11198.427474831452	42.68245510121
0	1291	11215.393327721319	16.965852889867
0	1292	11219.288252905903	3.894925184584
0	1295	11223.898555458475	4.610302552572
0	1297	11226.019064671033	2.120509212558
0	1300	11241.691371149734	15.672306478701
0	1304	11255.751871942635	14.060500792901
0	1306	11264.427310740908	8.675438798273
0	1307	11270.255925814177	5.828615073269
0	1314	11304.229850148333	33.973924334156
0	1315	11309.094476070525	4.864625922192
0	1330	11384.210606440543	75.116130370018
0	1335	11415.626126454556	31.415520014013
0	1340	11422.611681098341	6.985554643785
0	1342	11436.417654567289	13.805973468948
0	1345	11451.228552475841	14.810897908552
0	1349	11465.054246215949	13.825693740108
0	1351	11474.013002699273	8.958756483324
0	1360	11563.468872251287	89.455869552014
0	1361	11564.40131452325	0.932442271963
0	1364	11576.270818929725	11.869504406475
0	1365	11591.126252179401	14.855433249676
0	1373	11635.480438865381	44.35418668598
0	1377	11682.324414021411	46.84397515603
0	1380	11735.572573704209	53.248159682798
0	1382	11767.552380929432	31.979807225223
0	1386	11829.657882021204	62.105501091772
0	1388	11836.091321782598	6.433439761394
0	1392	11872.816867575917	36.725545793319
0	1394	11880.518439491588	7.701571915671
0	1395	11882.840067458565	2.321627966977
0	1397	11893.814774907723	10.974707449158
0	1400	11908.707354126896	14.892579219173
0	1410	12013.544949492823	104.83759536593
0	1412	12039.657991689315	26.113042196492
0	1416	12075.322653860287	35.664662170972
0	1417	12075.349996629831	0.027342769544
0	1420	12104.405845049269	29.055848419438
0	1421	12106.871805683183	2.465960633914
0	1428	12135.782453343517	28.910647660334
0	1434	12196.955950447736	61.173497104219
0	1437	12231.000642468946	34.04469202121
0	1440	12269.192729323753	38.192086854807
0	1443	12320.635845124085	51.443115800332
0	1445	12341.643361848314	21.007516724229
0	1447	12348.10431813739	6.460956289076
0	1453	12399.092815648788	50.988497511398
0	1455	12407.279445553562	8.186629904774
0	1459	12449.329681891333	42.050236337771
0	1462	12491.479509436839	42.149827545506
0	1464	12520.915354665902	29.435845229063
0	1468	12582.508081279001	61.592726613099
0	1471	12628.340193838133	45.832112559132
0	1473	12640.707177268132	12.366983429999
0	1476	12664.87465053131	24.167473263178
0	1478	12669.420222102904	4.545571571594
0	1484	12795.595518150025	126.17529604712
0	1486	12811.029115797255	15.43359764723
0	1490	12881.844277555659	70.815161758404
0	1493	12928.919808942778	47.075531387119
0	1494	12930.449961515392	1.530152572614
0	1497	12954.965946493211	24.515984977819
0	1498	12957.321544167351	2.35559767414
0	1502	12965.929985702822	8.608441535471
0	1510	13027.731205512676	61.801219809854
0	1513	13050.471009939189	22.739804426513
0	1515	13061.053296216642	10.582286277453
0	1516	13061.513130573148	0.459834356506
0	1524	13106.03610053035	44.522969957202
0	1528	13144.914794074614	38.878693544264
0	1530	13158.751076188366	13.836282113752
0	1534	13222.677909713242	63.926833524876
0	1537	13284.562508890502	61.88459917726
0	1539	13289.128104656492	4.56559576599
0	1540	13293.930129051373	4.802024394881
0	1547	13379.107857512714	85.177728461341
0	1549	13385.204014333296	6.096156820582
0	1551	13394.734580813865	9.530566480569
0	1556	13436.511239229321	41.776658415456
0	1558	13443.00373560113	6.492496371809
0	1562	13459.730402400756	16.726666799626
0	1568	13510.719421778358	50.989019377602
0	1571	13640.703291239572	129.98386946121
0	1573	13671.538567289201	30.835276049629
0	1577	13736.62278968	65.084222390799
0	1579	13753.003739619044	16.380949939044
0	1583	13852.825472438882	99.821732819838
0	1584	13855.707080850151	2.881608411269
0	1587	13873.056660572553	17.349579722402
0	1588	13884.826572239955	11.769911667402
0	1594	13894.620677947346	9.794105707391
0	1600	13938.50223744199	43.881559494644
0	1603	13969.845269068221	31.343031626231
0	1606	13978.889366961082	9.044097892861
0	1610	14062.513278475821	83.623911514739
0	1612	14075.261309758213	12.748031282392
0	1616	14119.973612559412	44.712302801199
0	1618	14136.061635016922	16.08802245751
0	1620	14151.09197820126	15.030343184338
0	1625	14172.934709045273	21.842730844013
0	1629	14210.943552853959	38.008843808686
0	1631	14240.500947738465	29.557394884506
0	1634	14269.797269247834	29.296321509369
0	1637	14295.441923565297	25.644654317463
0	1641	14334.509743807233	39.067820241936
0	1644	14382.28794910363	47.778205296397
0	1645	14384.296580586426	2.008631482796
0	1648	14391.774072890734	7.477492304308
0	1651	14417.310085521374	25.53601263064
0	1658	14470.14903862928	52.838953107906
0	1661	14507.43069768775	37.28165905847
0	1663	14530.527664209095	23.096966521345
0	1666	14542.394318850041	11.866654640946
0	1670	14576.180078914246	33.785760064205
0	1673	14609.409755687771	33.229676773525
0	1675	14620.644184349297	11.234428661526
0	1676	14624.594478682915	3.950294333618
0	1678	14628.824418352693	4.229939669778
0	1679	14633.984829618752	5.160411266059
0	1689	14681.803037679018	47.818208060266
0	1694	14721.852882730205	40.049845051187
0	1697	14737.774008012679	15.921125282474
0	1699	14748.638113436129	10.86410542345
0	1703	14771.969728010485	23.331614574356
0	1704	14773.901471571326	1.931743560841
0	1711	14799.067463387847	25.165991816521
0	1712	14807.950104760332	8.882641372485
0	1715	14812.428021063491	4.477916303159
0	1720	14832.395052642705	19.967031579214
0	1729	14897.606171295118	65.211118652413
0	1731	14920.114530598265	22.508359303147
0	1733	14927.211921238728	7.097390640463
0	1738	14959.946184852703	32.734263613975
0	1742	15013.232436210842	53.286251358139
0	1745	15103.031877327812	89.79944111697
0	1746	15105.221842367916	2.189965040104
0	1748	15108.572103665209	3.350261297293
0	1754	15164.793138226435	56.221034561226
0	1757	15190.474690600908	25.681552374473
0	1760	15208.615522840702	18.140832239794
0	1763	15231.399161695021	22.783638854319
0	1767	15287.037909664728	55.638747969707
0	1769	15299.40095096839	12.363041303662
0	1772	15325.797763919923	26.396812951533
0	1774	15333.654789702905	7.857025782982
0	1777	15341.515505219579	7.860715516674
0	1783	15373.382248228674	31.866743009095
0	1786	15397.565922170584	24.18367394191
0	1787	15398.534191833445	0.968269662861
0	1792	15422.507527849646	23.973336016201
0	1795	15432.158345966054	9.650818116408
0	1801	15480.141499520785	47.983153554731
0	1803	15481.908125495231	1.766625974446
0	1806	15510.636715339877	28.728589844646
0	1811	15532.06289521158	21.426179871703
0	1813	15541.184140571021	9.121245359441
0	1817	15559.06058959914	17.876449028119
0	1821	15575.389401059012	16.328811459872
0	1822	15577.5376780483	2.148276989288
0	1831	15646.906057957037	69.368379908737
0	1833	15651.821369908582	4.915311951545
0	1834	15657.685830534613	5.864460626031
0	1841	15714.33108957872	56.645259044107
0	1844	15764.900805588212	50.569716009492
0	1846	15797.690549288121	32.789743699909
0	1850	15848.892478057564	51.201928769443
0	1851	15851.803283417435	2.910805359871
0	1856	15897.482736988386	45.679453570951
0	1858	15920.114641616207	22.631904627821
0	1862	15960.175450761268	40.060809145061
0	1864	15965.964524341268	5.78907358
0	1866	15979.721384245021	13.756859903753
0	1867	15991.000737511029	11.279353266008
0	1871	16002.194693045931	11.193955534902
0	1879	16041.635381314713	39.440688268782
0	1883	16079.846052796507	38.210671481794
0	1886	16116.43985385986	36.593801063353
0	1889	16183.706534486063	67.266680626203
0	1892	16245.07043835155	61.363903865487
0	1894	16259.378764685207	14.308326333657
0	1897	16282.604885546875	23.226120861668
0	1900	16298.223173697477	15.618288150602
0	1902	16305.343324551266	7.120150853789
0	1906	16329.048659407342	23.705334856076
0	1912	16380.148246369245	51.099586961903
0	1914	16390.578414720656	10.430168351411
0	1915	16394.559214064206	3.98079934355
0	1922	16476.437956687318	81.878742623112
0	1925	16568.587288125102	92.149331437784
0	1928	16646.981611861742	78.39432373664
0	1930	16661.086490588828	14.104878727086
0	1931	16661.280457320958	0.19396673213
0	1932	16661.31892179606	0.038464475102
0	1941	16714.964744024964	53.645822228904
0	1945	16811.643016459926	96.678272434962
0	1946	16814.051322132285	2.408305672359
0	1951	16856.417876043539	42.366553911254
0	1953	16885.163884696874	28.746008653335
0	1957	16935.497806718295	50.333922021421
0	1959	16956.215372975858	20.717566257563
0	1963	16996.491993886918	40.27662091106
0	1965	17024.832763724354	28.340769837436
0	1966	17027.049168133137	2.216404408783
0	1971	17047.64607045229	20.596902319153
0	1977	17157.618711438944	109.97264098665
0	1979	17169.945222936633	12.326511497689
0	1983	17233.134907446805	63.189684510172
0	1986	17272.922523143953	39.787615697148
0	1989	17337.042080623595	64.119557479642
0	1990	17337.786505320736	0.744424697141
0	1993	17366.284059147577	28.497553826841
0	1999	17413.452988353628	47.168929206051
0	2001	17434.073208029489	20.620219675861
0	2004	17466.511777518176	32.438569488687
0	2007	17496.703051135514	30.191273617338
0	2010	17522.662279705603	25.959228570089
0	2012	17529.699315111637	7.037035406034
0	2016	17542.543919223267	12.84460411163
0	2020	17561.166464311397	18.62254508813
0	2023	17569.93328348625	8.766819174853
0	2028	17599.057903217527	29.124619731277
0	2032	17610.662984981063	11.605081763536
0	2036	17636.863426288485	26.200441307422
0	2039	17643.421757255646	6.558330967161
0	2041	17648.280771378797	4.859014123151
0	2048	17685.18319494446	36.902423565663
0	2051	17688.887284464492	3.704089520032
0	2053	17694.872561915128	5.985277450636
0	2062	17825.794972662333	130.9224107472
0	2064	17834.292822861567	8.497850199234
0	2066	17853.508275612427	19.21545275086
0	2071	17879.274781864387	25.76650625196
0	2072	17880.61095166518	1.336169800793
0	2077	17904.748649602451	24.137697937271
0	2081	17922.823728397151	18.0750787947
0	2085	17936.831215665932	14.007487268781
0	2086	17939.701916175642	2.87070050971
0	2089	17951.726910930459	12.024994754817
0	2098	17999.545088729723	47.818177799264
0	2100	18007.14231410267	7.597225372947
0	2105	18037.222503524623	30.080189421953
0	2106	18038.027044656364	0.804541131741
0	2112	18094.834629647998	56.807584991634
0	2114	18095.643437836107	0.808808188109
0	2119	18162.741290005931	67.097852169824
0	2122	18207.126269132331	44.3849791264
0	2125	18250.762298972452	43.636029840121
0	2127	18272.257087577009	21.494788604557
0	2130	18285.816039876813	13.558952299804
0	2132	18289.074456829103	3.25841695229
0	2133	18296.780150631881	7.705693802778
0	2142	18352.520265587472	55.740114955591
0	2144	18379.859167145899	27.338901558427
0	2147	18409.662312448725	29.803145302826
0	2151	18530.293606807739	120.63129435901
0	2153	18552.235712747417	21.942105939678
0	2156	18582.060565249452	29.824852502035
0	2159	18601.046320158842	18.98575490939
0	2162	18623.118194082034	22.071873923192
0	2163	18624.855188478855	1.736994396821
0	2169	18661.889383320309	37.034194841454
0	2172	18678.316257619581	16.426874299272
0	2175	18696.700499623998	18.384242004417
0	2177	18705.25851655012	8.558016926122
0	2183	18764.829479845547	59.570963295427
0	2186	18797.941555519827	33.11207567428
0	2189	18859.789381995112	61.847826475285
0	2191	18864.429940550335	4.640558555223
0	2193	18879.594992161196	15.165051610861
0	2198	18911.139064545496	31.5440723843
0	2199	18915.310109268245	4.171044722749
0	2205	18953.128104206843	37.817994938598
0	2209	19012.225506109533	59.09740190269
0	2212	19045.322245560884	33.096739451351
0	2215	19080.198618960167	34.876373399283
0	2217	19108.549494508536	28.350875548369
0	2220	19143.545359279231	34.995864770695
0	2224	19202.187329859005	58.641970579774
0	2227	19238.870646990677	36.683317131672
0	2229	19268.780752648469	29.910105657792
0	2232	19275.96781655432	7.187063905851
0	2234	19280.626958136633	4.659141582313
0	2239	19319.313700666441	38.686742529808
0	2243	19360.034587580403	40.720886913962
0	2246	19411.227763055514	51.193175475111
0	2248	19441.054303499571	29.826540444057
0	2251	19451.070450105764	10.016146606193
0	2255	19536.28191311904	85.211463013276
0	2258	19603.23808930675	66.95617618771
0	2259	19604.699899846022	1.461810539272
0	2264	19642.809299036574	38.109399190552
0	2266	19652.382563657026	9.573264620452
0	2267	19652.830399772841	0.447836115815
0	2274	19768.21194499348	115.38154522064
0	2277	19851.545158713333	83.333213719853
0	2280	19908.147058604762	56.601899891429
0	2283	19962.924416731185	54.777358126423
0	2286	20012.630687937912	49.706271206727
0	2287	20014.859062027188	2.228374089276
0	2290	20021.215857410911	6.356795383723
0	2291	20026.228322669662	5.012465258751
0	2300	20086.714598968194	60.486276298532
0	2303	20170.576542599823	83.861943631629
0	2306	20206.682853091448	36.106310491625
0	2308	20215.168694136347	8.485841044899
0	2312	20284.424293055406	69.255598919059
0	2314	20307.641977341008	23.217684285602
0	2317	20336.388566834366	28.746589493358
0	2319	20341.784566926256	5.39600009189
0	2322	20346.455968578275	4.671401652019
0	2323	20348.878549587789	2.422581009514
0	2325	20352.778483728112	3.899934140323
0	2336	20427.943028284536	75.164544556424
0	2339	20449.658989466393	21.715961181857
0	2341	20456.906309189159	7.247319722766
0	2342	20463.210792670511	6.304483481352
0	2345	20468.832868619154	5.622075948643
0	2350	20489.233652411537	20.400783792383
0	2353	20504.191939347729	14.958286936192
0	2360	20540.182893951882	35.990954604153
0	2367	20623.307454558803	83.124560606921
0	2370	20675.239495149496	51.932040590693
0	2373	20719.180672430051	43.941177280555
0	2375	20733.126220645921	13.94554821587
0	2379	20818.777030049884	85.650809403963
0	2382	20853.262721515972	34.485691466088
0	2384	20858.126940023623	4.864218507651
0	2386	20874.602111220171	16.475171196548
0	2387	20877.801599874015	3.199488653844
0	2391	20893.319981461765	15.51838158775
0	2395	20913.730328035922	20.410346574157
0	2399	20924.773597010039	11.043268974117
0	2400	20925.837864666564	1.064267656525
0	2412	21019.991103334064	94.1532386675
0	2415	21055.255080051074	35.26397671701
0	2417	21083.645738679109	28.390658628035
0	2420	21097.512897333722	13.867158654613
0	2422	21112.219562543461	14.706665209739
0	2427	21132.573598669513	20.354036126052
0	2429	21145.267832350442	12.694233680929
0	2434	21173.879605450888	28.611773100446
0	2438	21280.801871917432	106.92226646654
0	2440	21293.204977140004	12.403105222572
0	2444	21328.672851095281	35.467873955277
0	2447	21393.948595327148	65.275744231867
0	2449	21417.368198710762	23.419603383614
0	2453	21455.942923089799	38.574724379037
0	2455	21463.843009361469	7.90008627167
0	2457	21470.05873353428	6.215724172811
0	2458	21472.086433009053	2.027699474773
0	2459	21475.191126557347	3.104693548294
0	2460	21478.924325934308	3.733199376961
0	2470	21525.718308921493	46.793982987185
0	2477	21563.394411807466	37.676102885973
0	2481	21579.316233321021	15.921821513555
0	2487	21623.524360918764	44.208127597743
0	2489	21628.473286192751	4.948925273987
0	2490	21632.969959990511	4.49667379776
0	2497	21734.333743850318	101.36378385981
0	2499	21738.418170053783	4.084426203465
0	2501	21748.30438537776	9.886215323977
0	2502	21763.175227351549	14.870841973789
0	2510	21800.685561925356	37.510334573807
0	2513	21826.54567182026	25.860109894904
0	2517	21872.555470142592	46.009798322332
0	2520	21918.043307448689	45.487837306097
0	2522	21922.838849572155	4.795542123466
0	2524	21937.856821233302	15.017971661147
0	2528	21957.254000734716	19.397179501414
0	2534	22010.211173742737	52.957173008021
0	2537	22044.697348200521	34.486174457784
0	2540	22156.808474859178	112.11112665866
0	2542	22175.805180737571	18.996705878393
0	2545	22204.293385335621	28.48820459805
0	2549	22245.990134541885	41.696749206264
0	2551	22276.759432491067	30.769297949182
0	2555	22368.480849855337	91.72141736427
0	2558	22508.138002519433	139.6571526641
0	2560	22531.54121366787	23.403211148437
0	2563	22545.879175856544	14.337962188674
0	2566	22573.342392108833	27.463216252289
0	2567	22574.538647536241	1.196255427408
0	2574	22681.352645553676	106.81399801743
0	2575	22682.066799682156	0.71415412848
0	2578	22705.795892793264	23.729093111108
0	2579	22706.214411403284	0.41851861002
0	2580	22712.478514100934	6.26410269765
0	2591	22762.622062492677	50.143548391743
0	2593	22772.116959653736	9.494897161059
0	2594	22778.711551456928	6.594591803192
0	2601	22811.091838164547	32.380286707619
0	2605	22820.427315704096	9.335477539549
0	2610	22865.218672443588	44.791356739492
0	2614	22908.136561441461	42.917888997873
0	2617	23060.266588978006	152.13002753654
0	2619	23073.697902205381	13.431313227375
0	2623	23111.373639770033	37.675737564652
0	2625	23143.204423665274	31.830783895241
0	2629	23180.299337358597	37.094913693323
0	2631	23209.599585279323	29.300247920726
0	2634	23221.207770411305	11.608185131982
0	2635	23224.149560325588	2.941789914283
0	2637	23229.231335903678	5.08177557809
0	2640	23249.044315512144	19.812979608466
0	2645	23264.228276844423	15.183961332279
0	2646	23278.287134016885	14.058857172462
0	2657	23333.691826824556	55.404692807671
0	2661	23369.47980084221	35.787974017654
0	2663	23376.336690577815	6.856889735605
0	2665	23395.094177232003	18.757486654188
0	2666	23402.43960505209	7.345427820087
0	2675	23461.307020077039	58.867415024949
0	2677	23477.580801253776	16.273781176737
0	2679	23492.051083490633	14.470282236857
0	2683	23507.475279188086	15.424195697453
0	2689	23681.149231526489	173.6739523384
0	2692	23722.305726980078	41.156495453589
0	2695	23761.319219669392	39.013492689314
0	2697	23778.118244654024	16.799024984632
0	2701	23852.627733481042	74.509488827018
0	2703	23864.292042502192	11.66430902115
0	2704	23867.160964101943	2.868921599751
0	2709	23894.276691652321	27.115727550378
0	2710	23896.270197868944	1.993506216623
0	2711	23900.148470861578	3.878272992634
0	2723	24021.014511198197	120.86604033662
0	2724	24022.552542729339	1.538031531142
0	2729	24088.402370851503	65.849828122164
0	2732	24123.28352941262	34.881158561117
0	2734	24142.757622524439	19.474093111819
0	2735	24144.377906606447	1.620284082008
0	2741	24182.978585897688	38.600679291241
0	2744	24196.154019738461	13.175433840773
0	2746	24218.270954165449	22.116934426988
0	2749	24222.764783012505	4.493828847056
0	2756	24351.602668120345	128.83788510784
0	2758	24356.399667418518	4.796999298173
0	2760	24366.453017507649	10.053350089131
0	2765	24396.475362654679	30.02234514703
0	2769	24601.958875313507	205.48351265883
0	2772	24649.511379547047	47.55250423354
0	2774	24674.232194822174	24.720815275127
0	2778	24717.591371850375	43.359177028201
0	2780	24724.999013900366	7.407642049991
0	2782	24731.649405543958	6.650391643592
0	2783	24736.489112072099	4.839706528141
0	2790	24770.399705597644	33.910593525545
0	2796	24874.124635475674	103.72492987803
0	2798	24890.941004647603	16.816369171929
0	2801	24909.825136170917	18.884131523314
0	2804	24929.51834879089	19.693212619973
0	2808	25005.086019409587	75.567670618697
0	2811	25042.306839738498	37.220820328911
0	2814	25124.040347191464	81.733507452966
0	2816	25146.947282808412	22.906935616948
0	2820	25190.084122210677	43.136839402265
0	2822	25203.415011491333	13.330889280656
0	2824	25215.026761659594	11.611750168261
0	2830	25327.746637414249	112.71987575465
0	2832	25340.618545212144	12.871907797895
0	2836	25443.79851792071	103.17997270857
0	2838	25451.923549103317	8.125031182607
0	2841	25480.143624636534	28.220075533217
0	2844	25509.554404254464	29.41077961793
0	2847	25541.288431483386	31.734027228922
0	2850	25567.567510652474	26.279079169088
0	2854	25678.644948878856	111.07743822638
0	2856	25685.364642043652	6.719693164796
0	2858	25692.159880021082	6.79523797743
0	2859	25703.525468487071	11.365588465989
0	2863	25717.453738186026	13.928269698955
0	2866	25722.634395847676	5.18065766165
0	2875	25789.188173285413	66.553777437737
0	2878	25808.93331116274	19.745137877327
0	2879	25810.262411733123	1.329100570383
0	2886	25874.634960537124	64.372548804001
0	2889	25914.493223828651	39.858263291527
0	2891	25924.237696931905	9.744473103254
0	2894	25953.326575562282	29.088878630377
0	2898	25991.484566504524	38.157990942242
0	2900	25997.665491618543	6.180925114019
0	2904	26037.436025681688	39.770534063145
0	2906	26045.877964784754	8.441939103066
0	2910	26105.551291715814	59.67332693106
0	2912	26112.315894161577	6.764602445763
0	2916	26150.088642700088	37.772748538511
0	2918	26156.939129756825	6.850487056737
0	2919	26158.271132148294	1.332002391469
0	2921	26168.232746286185	9.961614137891
0	2924	26182.972021225556	14.739274939371
0	2933	26239.83258617444	56.860564948884
0	2934	26244.316664681306	4.484078506866
0	2939	26261.300933467145	16.984268785839
0	2940	26270.165941109923	8.865007642778
0	2949	26405.932573402738	135.76663229281
0	2951	26431.700387302425	25.767813899687
0	2955	26473.377284275243	41.676896972818
0	2957	26503.658708039072	30.281423763829
0	2960	26531.248714547815	27.590006508743
0	2963	26552.493079647003	21.244365099188
0	2964	26557.503286080001	5.010206432998
0	2969	26573.677458037438	16.174171957437
0	2974	26619.337427776818	45.65996973938
0	2977	26633.398152596666	14.060724819848
0	2979	26647.926143921318	14.527991324652
0	2983	26666.225210874073	18.299066952755
0	2989	26710.194431807625	43.969220933552
0	2992	26788.09470761549	77.900275807865
0	2994	26808.406616998224	20.311909382734
0	2998	26851.048933180338	42.642316182114
0	3001	26918.743875841016	67.694942660678
0	3003	26937.562583952306	18.81870811129
0	3005	26947.284399813765	9.721815861459
0	3009	26960.527672392386	13.243272578621
0	3010	26962.086276243097	1.558603850711
0	3013	26978.735714037755	16.649437794658
0	3023	27121.510175895847	142.77446185809
0	3026	27161.104278529931	39.594102634084
0	3029	27255.179409065155	94.075130535224
0	3032	27299.846587164583	44.667178099428
0	3034	27305.700770900099	5.854183735516
0	3036	27312.11635417224	6.415583272141
0	3037	27326.605719003401	14.489364831161
0	3046	27498.072406779697	171.4666877763
0	3048	27501.404445340678	3.332038560981
0	3052	27547.83067709054	46.426231749862
0	3054	27563.052829530665	15.222152440125
0	3056	27579.328913289234	16.276083758569
0	3061	27604.956866590135	25.627953300901
0	3064	27618.795264203685	13.83839761355
0	3065	27621.09346775658	2.298203552895
0	3069	27646.160706645361	25.067238888781
0	3074	27671.055822127908	24.895115482547
0	3079	27685.919521305582	14.863699177674
0	3083	27736.66887814778	50.749356842198
0	3086	27776.579639754288	39.910761606508
0	3088	27791.482944115639	14.903304361351
0	3092	27850.020326613862	58.537382498223
0	3094	27882.444204500566	32.423877886704
0	3097	27912.171336399198	29.727131898632
0	3100	27943.050939513145	30.879603113947
0	3102	27947.141284482855	4.09034496971
0	3105	27974.983069417575	27.84178493472
0	3110	27986.563623262866	11.580553845291
0	3113	28016.251771773869	29.688148511003
0	3116	28034.432483093909	18.18071132004
0	3118	28038.437435984024	4.004952890115
0	3123	28076.040506381885	37.603070397861
0	3126	28104.180785916271	28.140279534386
0	3129	28112.881478611624	8.700692695353
0	3133	28205.241762306724	92.3602836951
0	3135	28224.299259848394	19.05749754167
0	3138	28257.648133735564	33.34887388717
0	3141	28261.224217192779	3.576083457215
0	3145	28300.607563586821	39.383346394042
0	3147	28305.599532986923	4.991969400102
0	3149	28329.271298487395	23.671765500472
0	3152	28335.98664695463	6.715348467235
0	3156	28341.969339218879	5.982692264249
0	3162	28389.113677267395	47.144338048516
0	3164	28396.072562920378	6.958885652983
0	3168	28420.890344398301	24.817781477923
0	3174	28541.034975329847	120.14463093155
0	3176	28568.456806243333	27.421830913486
0	3179	28579.358130520977	10.901324277644
0	3181	28583.411502970832	4.053372449855
0	3186	28628.654820659959	45.243317689127
0	3189	28657.72796313037	29.073142470411
0	3192	28668.872116515806	11.144153385436
0	3194	28687.59383308766	18.721716571854
0	3200	28737.890973969901	50.297140882241
0	3203	28792.964921440041	55.07394747014
0	3205	28811.54871568445	18.583794244409
0	3207	28820.819214631684	9.270498947234
0	3211	28840.656226151409	19.837011519725
0	3216	28868.315397359616	27.659171208207
0	3218	28881.377419006142	13.062021646526
0	3224	28950.049362963457	68.671943957315
0	3226	28960.221223975125	10.171861011668
0	3228	28978.09931142426	17.878087449135
0	3232	28994.534167842496	16.434856418236
0	3235	29001.32087264935	6.786704806854
0	3240	29018.612632599525	17.291759950175
0	3246	29084.920301137011	66.307668537486
0	3249	29154.463219416995	69.542918279984
0	3252	29203.276366631355	48.81314721436
0	3255	29253.71407430799	50.437707676635
0	3257	29275.681725370255	21.967651062265
0	3258	29281.037147350463	5.355421980208
0	3260	29282.347106344132	1.309958993669
0	3264	29305.478936733297	23.131830389165
0	3267	29312.609605221813	7.130668488516
0	3274	29348.777752168235	36.168146946422
0	3279	29370.218609332693	21.440857164458
0	3284	29393.131311555156	22.912702222463
0	3286	29400.12846903507	6.997157479914
0	3287	29415.034388684891	14.905919649821
0	3294	29433.206553182005	18.172164497114
0	3295	29447.29387502884	14.087321846835
0	3302	29465.577107116596	18.283232087756
0	3303	29490.294104317772	24.716997201176
0	3312	29565.556924344159	75.262820026387
0	3314	29582.786409973797	17.229485629638
0	3318	29625.498382713349	42.711972739552
0	3320	29634.021848039165	8.523465325816
0	3322	29644.585720552719	10.563872513554
0	3326	29667.608435606246	23.022715053527
0	3329	29673.817359662117	6.208924055871
0	3334	29703.131410569962	29.314050907845
0	3340	29755.105857464651	51.974446894689
0	3341	29756.059954649469	0.954097184818
0	3342	29757.874708368762	1.814753719293
0	3345	29768.390538557967	10.515830189205
0	3346	29779.745571939177	11.35503338121
0	3353	29799.935148253484	20.189576314307
0	3362	29875.148746595027	75.213598341543
0	3365	29973.802676310263	98.653929715236
0	3368	30082.823114325902	109.02043801564
0	3371	30137.567927309596	54.744812983694
0	3374	30242.316848871995	104.7489215624
0	3376	30247.151339591805	4.83449071981
0	3377	30247.706335399684	0.554995807879
0	3379	30255.918837271029	8.212501871345
0	3380	30268.314225145213	12.395387874184
0	3387	30289.363064020939	21.048838875726
0	3396	30432.125171667001	142.76210764606
0	3399	30467.819836236206	35.694664569205
0	3401	30482.934918904289	15.115082668083
0	3405	30585.286624389357	102.35170548507
0	3407	30598.086364019543	12.799739630186
0	3409	30604.33374648616	6.247382466617
0	3410	30616.212193503018	11.878447016858
0	3414	30623.255533491212	7.043339988194
0	3418	30650.749434468223	27.493900977011
0	3422	30665.28685598385	14.537421515627
0	3429	30698.955634281865	33.668778298015
0	3434	30731.014231380021	32.058597098156
0	3436	30738.120161783389	7.105930403368
0	3442	30813.295839902736	75.175678119347
0	3444	30838.193302147023	24.897462244287
0	3447	30849.401909775434	11.208607628411
0	3451	30895.993857317493	46.591947542059
0	3454	30932.901213217842	36.907355900349
0	3456	30947.750981825716	14.849768607874
0	3460	31060.453519677777	112.70253785206
0	3463	31096.809882701983	36.356363024206
0	3466	31188.56914714814	91.759264446157
0	3469	31225.16723991334	36.5980927652
0	3471	31249.238684506628	24.071444593288
0	3472	31254.970581693175	5.731897186547
0	3479	31305.082098030709	50.111516337534
0	3482	31350.079451768307	44.997353737598
0	3483	31351.600566521093	1.521114752786
0	3488	31388.966381741785	37.365815220692
0	3491	31428.189790286755	39.22340854497
0	3493	31434.168448322545	5.97865803579
0	3497	31475.783191877736	41.614743555191
0	3500	31575.150167018593	99.366975140857
0	3501	31576.393374783848	1.243207765255
0	3504	31601.739878900937	25.346504117089
0	3509	31618.561486851386	16.821607950449
0	3513	31654.961445105453	36.399958254067
0	3515	31664.930544739154	9.969099633701
0	3519	31738.905141138237	73.974596399083
0	3522	31790.137823110041	51.232681971804
0	3524	31799.411170348227	9.273347238186
0	3525	31802.327061021522	2.915890673295
0	3527	31810.734176825077	8.407115803555
0	3528	31815.92506976687	5.190892941793
0	3535	31844.292349976867	28.367280209997
0	3544	31953.564451097624	109.27210112076
0	3547	31999.023463656732	45.459012559108
0	3549	32018.114636463107	19.091172806375
0	3552	32045.721953262461	27.607316799354
0	3556	32083.798441749886	38.076488487425
0	3558	32107.698966664379	23.900524914493
0	3562	32169.592574902818	61.893608238439
0	3565	32259.453886127409	89.861311224591
0	3568	32295.762355101617	36.308468974208
0	3571	32384.576495921628	88.814140820011
0	3573	32395.357676880915	10.781180959287
0	3576	32421.844548513753	26.486871632838
0	3580	32460.009686778329	38.165138264576
0	3583	32503.43717497386	43.427488195531
0	3585	32528.51753640501	25.08036143115
0	3589	32578.155387151204	49.637850746194
0	3592	32618.57682613487	40.421438983666
0	3594	32626.701105292867	8.124279157997
0	3598	32709.215774661064	82.514669368197
0	3600	32733.163275886242	23.947501225178
0	3604	32791.659202350272	58.49592646403
0	3607	32890.96175781632	99.302555466048
0	3609	32907.444926535248	16.483168718928
0	3613	32955.868467492987	48.423540957739
0	3615	32969.701997377096	13.833529884109
0	3619	33035.9920429813	66.290045604204
0	3622	33083.313793288365	47.321750307065
0	3624	33090.690935951595	7.37714266323
0	3627	33120.929703504326	30.238767552731
0	3631	33178.137189171904	57.207485667578
0	3633	33183.7227122004	5.585523028496
0	3637	33251.095572711499	67.372860511099
0	3639	33270.229455926798	19.133883215299
0	3642	33292.919906006718	22.69045007992
0	3646	33349.142261334362	56.222355327644
0	3648	33375.272590524819	26.130329190457
0	3651	33397.097807699451	21.825217174632
0	3655	33438.621785756546	41.523978057095
0	3657	33442.508233609681	3.886447853135
0	3658	33443.720087438769	1.211853829088
0	3664	33483.773769723195	40.053682284426
0	3668	33548.744427207883	64.970657484688
0	3670	33560.926199860452	12.181772652569
0	3673	33590.610406280935	29.684206420483
0	3676	33617.646154993104	27.035748712169
0	3680	33668.081873642064	50.43571864896
0	3682	33685.947152116515	17.865278474451
0	3686	33772.724032403904	86.776880287389
0	3688	33784.781486643269	12.057454239365
0	3690	33791.558304556774	6.776817913505
0	3691	33797.004180980605	5.445876423831
0	3692	33800.964206398778	3.960025418173
0	3704	33919.641403415605	118.67719701683
0	3706	33941.430366615496	21.788963199891
0	3710	33988.534965918337	47.104599302841
0	3713	34031.393218537055	42.858252618718
0	3715	34041.067656675511	9.674438138456
0	3719	34081.570768099591	40.50311142408
0	3722	34322.225990538685	240.65522243909
0	3725	34377.938795753855	55.71280521517
0	3727	34403.400348086671	25.461552332816
0	3730	34427.942019764304	24.541671677633
0	3732	34431.063016171555	3.120996407251
0	3738	34666.202903377741	235.13988720619
0	3740	34693.410341975909	27.207438598168
0	3743	34709.161973005414	15.751631029505
0	3745	34726.720172297283	17.558199291869
0	3751	34784.745033143971	58.024860846688
0	3753	34805.405319761583	20.660286617612
0	3757	34847.841947158896	42.436627397313
0	3759	34855.603428978215	7.761481819319
0	3761	34876.090846911294	20.487417933079
0	3764	34882.038364476782	5.947517565488
0	3766	34891.147515861124	9.109151384342
0	3769	34896.747537677335	5.600021816211
0	3770	34896.770107014109	0.022569336774
0	3781	34962.07649228693	65.306385272821
0	3785	34972.386512345667	10.310020058737
0	3788	34981.119514390828	8.733002045161
0	3790	34996.325419040709	15.205904649881
0	3796	35014.060903393322	17.735484352613
0	3797	35014.784960188371	0.724056795049
0	3799	35028.483460239087	13.698500050716
0	3810	35095.993012051322	67.509551812235
0	3814	35148.003593770315	52.010581718993
0	3816	35158.012546188407	10.008952418092
0	3818	35177.714754492634	19.702208304227
0	3822	35186.421235535677	8.706481043043
0	3827	35221.606194476562	35.184958940885
0	3828	35223.606968368687	2.000773892125
0	3835	35295.083315721967	71.47634735328
0	3837	35308.272319096435	13.189003374468
0	3839	35314.60097443396	6.328655337525
0	3845	35372.374620497879	57.773646063919
0	3847	35404.862404332736	32.487783834857
0	3851	35460.055332970942	55.192928638206
0	3852	35460.315497150824	0.260164179882
0	3857	35498.793326993447	38.477829842623
0	3860	35536.124937166403	37.331610172956
0	3862	35567.135304718067	31.010367551664
0	3866	35613.159451765912	46.024147047845
0	3868	35636.678523732723	23.519071966811
0	3872	35794.108864749174	157.43034101645
0	3873	35796.590300135768	2.481435386594
0	3878	35874.924175410228	78.33387527446
0	3881	35920.409400776989	45.485225366761
0	3883	35926.787070131854	6.377669354865
0	3886	35957.002067616229	30.214997484375
0	3889	35969.08978893491	12.087721318681
0	3890	35974.356356641421	5.266567706511
0	3894	35990.921939611857	16.565582970436
0	3901	36067.022606877075	76.100667265218
0	3903	36071.0954468352	4.072839958125
0	3905	36096.805394520993	25.709947685793
0	3910	36130.211895730022	33.406501209029
0	3911	36132.367706346781	2.155810616759
0	3918	36178.290952576657	45.923246229876
0	3920	36198.884859901051	20.593907324394
0	3921	36204.615545523998	5.730685622947
0	3923	36205.211316636793	0.595771112795
0	3927	36224.280353009815	19.069036373022
0	3928	36233.921132895265	9.64077988545
0	3935	36249.62015897833	15.699026083065
0	3938	36272.736243115562	23.116084137232
0	3943	36288.6196087374	15.883365621838
0	3946	36306.954490016982	18.334881279582
0	3951	36318.736010640133	11.781520623151
0	3952	36320.266549575775	1.530538935642
0	3959	36372.282919739811	52.016370164036
0	3960	36372.360254721573	0.077334981762
0	3971	36416.670194584917	44.309939863344
0	3975	36483.048443239596	66.378248654679
0	3977	36498.286244644629	15.237801405033
0	3981	36551.40339411657	53.117149471941
0	3982	36553.764439515673	2.361045399103
0	3987	36590.743634318343	36.97919480267
0	3990	36691.353276497136	100.60964217879
0	3992	36702.385914890404	11.032638393268
0	3993	36707.364260474961	4.978345584557
0	3995	36717.922982689783	10.558722214822
0	3999	36729.217516214344	11.294533524561
0	4000	36730.087940954797	0.870424740453
0	4001	36737.930888417344	7.842947462547
0	4007	36758.129590971579	20.198702554235
0	4009	36772.177679656392	14.048088684813
0	4016	36794.723046790273	22.545367133881
0	4025	36848.299463971803	53.57641718153
0	4032	36898.617426018158	50.317962046355
0	4035	36962.359645247939	63.742219229781
0	4038	36997.940377463362	35.580732215423
0	4040	37005.882787630841	7.942410167479
0	4043	37033.100090062899	27.217302432058
0	4046	37045.246003391241	12.145913328342
0	4050	37148.876931010449	103.63092761921
0	4052	37168.547789083272	19.670858072823
0	4056	37217.792097074353	49.244307991081
0	4059	37290.446865004311	72.654767929958
0	4061	37303.917833275893	13.470968271582
0	4063	37314.545686499531	10.627853223638
0	4069	37362.035341083043	47.489654583512
0	4071	37379.415674022123	17.38033293908
0	4072	37379.421504153355	0.005830131232
0	4074	37391.572175897085	12.15067174373
0	4078	37413.149981748449	21.577805851364
0	4085	37440.785782939374	27.635801190925
0	4090	37476.561250307025	35.775467367651
0	4094	37513.385474006602	36.824223699577
0	4096	37517.509252312478	4.123778305876
0	4099	37552.559775415115	35.050523102637
0	4103	37588.977401984602	36.417626569487
0	4105	37596.628041273906	7.650639289304
0	4107	37606.638866868309	10.010825594403
0	4111	37631.42035901172	24.781492143411
0	4117	37796.916427401348	165.49606838963
0	4119	37814.013552960545	17.097125559197
0	4121	37824.136594094207	10.123041133662
0	4127	37916.754561407385	92.617967313178
0	4129	37927.230321498598	10.475760091213
0	4132	37958.289307606085	31.058986107487
0	4136	37995.844934883344	37.555627277259
0	4138	38024.683765756803	28.838830873459
0	4141	38040.950018454014	16.266252697211
0	4143	38049.419661791049	8.469643337035
0	4146	38064.125904366689	14.70624257564
0	4153	38109.13941357655	45.013509209861
0	4155	38116.882595184484	7.743181607934
0	4157	38126.193208424537	9.310613240053
0	4162	38170.424050260361	44.230841835824
0	4165	38184.02536313916	13.601312878799
0	4166	38184.229925246719	0.204562107559
0	4168	38194.13206083042	9.902135583701
0	4169	38195.324619769981	1.192558939561
0	4172	38207.130234894892	11.805615124911
0	4176	38218.250082956219	11.119848061327
0	4188	38300.79758989284	82.547506936621
0	4191	38317.590445516994	16.792855624154
0	4194	38336.207201587245	18.616756070251
0	4196	38349.791975790726	13.584774203481
0	4199	38354.391321035995	4.599345245269
0	4200	38355.985371733225	1.59405069723
0	4204	38371.564188973514	15.578817240289
0	4209	38400.723032671151	29.158843697637
0	4217	38449.306683924832	48.583651253681
0	4220	38479.275951145802	29.96926722097
0	4224	38562.685187573409	83.409236427607
0	4227	38628.149310938011	65.464123364602
0	4229	38633.512251276498	5.362940338487
0	4231	38650.763579084801	17.251327808303
0	4237	38750.878546445348	100.11496736055
0	4240	38805.845898775324	54.967352329976
0	4242	38812.477742652917	6.631843877593
0	4243	38814.501268917917	2.023526265
0	4249	38854.412572583509	39.911303665592
0	4253	38900.957229126918	46.544656543409
0	4255	38916.798170813937	15.840941687019
0	4258	38939.949442077639	23.151271263702
0	4260	38946.508563066672	6.559120989033
0	4265	38974.506133822683	27.997570756011
0	4269	39026.054589335045	51.548455512362
0	4272	39071.874062157952	45.819472822907
0	4274	39084.402685691575	12.528623533623
0	4276	39093.116751283026	8.714065591451
0	4280	39116.207990266429	23.091238983403
0	4286	39185.008091261183	68.800100994754
0	4289	39250.972563010008	65.964471748825
0	4292	39314.092705613865	63.120142603857
0	4294	39321.794619930774	7.701914316909
0	4295	39323.857591658121	2.062971727347
0	4297	39341.570344440781	17.71275278266
0	4306	39394.59112141687	53.020776976089
0	4309	39444.041583127417	49.450461710547
0	4312	39483.675447619473	39.633864492056
0	4314	39509.85183286715	26.176385247677
0	4318	39563.780335622278	53.928502755128
0	4320	39581.640999082754	17.860663460476
0	4323	39598.928579563306	17.287580480552
0	4325	39611.036916104372	12.108336541066
0	4331	39671.419528968957	60.382612864585
0	4333	39677.126141317314	5.706612348357
0	4335	39693.06900494893	15.942863631616
0	4338	39705.450499287425	12.381494338495
0	4345	39760.641211017652	55.190711730227
0	4348	39805.670793971145	45.029582953493
0	4350	39827.279209340622	21.608415369477
0	4352	39834.431625464284	7.152416123662
0	4356	39848.183104136125	13.751478671841
0	4361	39874.895161171322	26.712057035197
0	4365	39999.551620047753	124.65645887643
0	4367	40019.212882811333	19.66126276358
0	4370	40036.30319042797	17.090307616637
0	4373	40058.641078548506	22.337888120536
0	4377	40107.834600814657	49.193522266151
0	4379	40126.920244005329	19.085643190672
0	4382	40143.477086718827	16.556842713498
0	4386	40182.197861594886	38.720774876059
0	4388	40201.635571729441	19.437710134555
0	4389	40206.495298997508	4.859727268067
0	4396	40295.93964678122	89.444347783712
0	4398	40324.714538006824	28.774891225604
0	4399	40326.689144775462	1.974606768638
0	4406	40376.545509441809	49.856364666347
0	4408	40382.701258126894	6.155748685085
0	4412	40418.519627688721	35.818369561827
0	4414	40446.041733188232	27.522105499511
0	4417	40480.397244730932	34.3555115427
0	4420	40502.844595041111	22.447350310179
0	4423	40526.766081538933	23.921486497822
0	4427	40566.303092803413	39.53701126448
0	4429	40572.600976836303	6.29788403289
0	4431	40589.909557140755	17.308580304452
0	4436	40617.030272060858	27.120714920103
0	4439	40632.631749598432	15.601477537574
0	4443	40702.225947083421	69.594197484989
0	4445	40731.249280437506	29.023333354085
0	4448	40746.49688674738	15.247606309874
0	4452	40788.788534148422	42.291647401042
0	4454	40795.428860814656	6.640326666234
0	4456	40806.060604930164	10.631744115508
0	4461	40845.547749017676	39.487144087512
0	4462	40848.407783350775	2.860034333099
0	4469	40911.194553439005	62.78677008823
0	4472	40981.403767073722	70.209213634717
0	4474	40987.541141212147	6.137374138425
0	4476	41005.273243846496	17.732102634349
0	4480	41021.084403908435	15.811160061939
0	4486	41086.241201571823	65.156797663388
0	4489	41121.92061471173	35.679413139907
0	4492	41170.230499349249	48.309884637519
0	4495	41229.777982736112	59.547483386863
0	4497	41250.453757190344	20.675774454232
0	4501	41289.719275268367	39.265518078023
0	4503	41295.326044364533	5.606769096166
0	4507	41358.774466541695	63.448422177162
0	4509	41387.377878416838	28.603411875143
0	4512	41405.121147696759	17.743269279921
0	4515	41423.338672327937	18.217524631178
0	4518	41443.690196435363	20.351524107426
0	4521	41459.873605246412	16.183408811049
0	4525	41502.901362494209	43.027757247797
0	4527	41510.458236088065	7.556873593856
0	4531	41559.947499840199	49.489263752134
0	4532	41562.175605559606	2.228105719407
0	4537	41601.25579348157	39.080187921964
0	4540	41676.248598527139	74.992805045569
0	4542	41693.920252885491	17.671654358352
0	4545	41715.251881844569	21.331628959078
0	4549	41774.306664483854	59.054782639285
0	4551	41789.703219114259	15.396554630405
0	4552	41794.282049128086	4.578830013827
0	4557	41823.703624039234	29.421574911148
0	4561	41836.245781948475	12.542157909241
0	4565	41858.548507751988	22.302725803513
0	4570	41885.133813298479	26.585305546491
0	4574	41919.947255700534	34.813442402055
0	4577	41961.049402597559	41.102146897025
0	4579	41970.314636910256	9.265234312697
0	4580	41971.395960180342	1.081323270086
0	4582	41978.333492092165	6.937531911823
0	4583	41990.180128777465	11.8466366853
0	4593	42033.169822945327	42.989694167862
0	4597	42059.344867137643	26.175044192316
0	4603	42142.288561144474	82.943694006831
0	4606	42210.110203378908	67.821642234434
0	4608	42242.520113067106	32.409909688198
0	4612	42306.086817547788	63.566704480682
0	4615	42345.188308551579	39.101491003791
0	4617	42352.913350999108	7.725042447529
0	4620	42379.018398480272	26.105047481164
0	4624	42450.706691063185	71.688292582913
0	4625	42450.860192045766	0.153500982581
0	4628	42482.197764620419	31.337572574653
0	4634	42524.659908892336	42.462144271917
0	4637	42557.805410458997	33.145501566661
0	4640	42627.462984009797	69.6575735508
0	4642	42631.536863318035	4.073879308238
0	4643	42634.424102742896	2.887239424861
0	4647	42663.084383228383	28.660280485487
0	4652	42679.60766603924	16.523282810857
0	4657	42709.060855183635	29.453189144395
0	4659	42719.111467291941	10.050612108306
0	4662	42728.713262911947	9.601795620006
0	4664	42736.466038049883	7.752775137936
0	4668	42757.997087916165	21.531049866282
0	4672	42778.938657638615	20.94156972245
0	4673	42780.278588374809	1.339930736194
0	4679	42793.360946670911	13.082358296102
0	4689	42879.717938301762	86.356991630851
0	4692	42944.943645167772	65.22570686601
0	4695	43007.483868814508	62.540223646736
0	4698	43072.278858040355	64.794989225847
0	4700	43082.875395615262	10.596537574907
1	1	7	0
1	4	63.968505563477	0
1	6	89.114315483357	0
1	10	97.25699126983	0
1	15	125.058986448144	1
1	17	130.22042311406	0
1	22	160.396173966691	0
1	25	193.541986496533	0
1	28	205.063242417296	0
1	32	269.750107727229	0
1	35	305.951315751561	0
1	37	313.107648438788	0
1	42	339.48851910931	1
1	47	349.931229069156	2
1	51	372.274070939492	2
1	54	385.605156691964	1
1	57	406.326377285178	0
1	61	450.894336346705	0
1	63	462.290745274645	0
1	66	484.706440776524	0
1	69	506.457330515024	0
1	73	560.615148979604	0
1	75	572.021019602892	0
1	78	606.406832011608	0
1	82	699.39467026757	0
1	85	774.938088815748	0
1	87	787.850075226751	0
1	91	808.207284701281	0
1	95	823.663928363125	0
1	99	874.50260348827	0
1	102	1035.735347978807	0
1	104	1047.215176454308	0
1	108	1068.473395625388	0
1	111	1098.236244937351	0
1	115	1159.824617014314	0
1	117	1189.223733123245	0
1	120	1198.087449601746	0
1	124	1224.641438209987	0
1	127	1240.952411639729	0
1	131	1279.85600732408	0
1	133	1298.223840352577	0
1	136	1325.433459144057	0
1	140	1369.353897160655	0
1	142	1401.80428207627	0
1	145	1408.819056472027	0
1	150	1437.176209000424	1
1	152	1441.217772386962	0
1	157	1477.47487767829	0
1	160	1540.215653335866	0
1	163	1583.177234461371	0
1	164	1583.628502525265	0
1	169	1616.061375350485	0
1	173	1668.213067621448	0
1	176	1709.71970327242	0
1	179	1778.132548494534	0
1	181	1804.190052895054	0
1	184	1821.830500916311	0
1	187	1843.704719198067	0
1	191	1898.346220049956	0
1	193	1908.982283576177	0
1	197	1931.741659403989	0
1	200	1964.320406127525	0
1	203	1973.330624796818	0
1	207	2007.709539384548	0
1	209	2013.599681035352	0
1	213	2040.203621901283	0
1	218	2049.125488787328	1
1	222	2073.147905761925	1
1	226	2085.215520347886	1
1	230	2105.975932600523	1
1	233	2121.596761591115	0
1	237	2159.942145682172	0
1	240	2221.665305501877	0
1	243	2270.531718237312	0
1	244	2271.938565565806	0
1	248	2307.159637449806	0
1	252	2373.959055184341	0
1	254	2380.351918588124	0
1	258	2406.588569436464	0
1	262	2416.910686063412	0
1	267	2439.921507447552	1
1	270	2452.281138054575	0
1	274	2501.27469302826	0
1	277	2541.915215779776	0
1	279	2570.936792227059	0
1	283	2615.422755657039	0
1	285	2620.15797679451	0
1	289	2660.4802047843	0
1	292	2732.86461547946	0
1	295	2796.083693504352	0
1	298	2865.35633581675	0
1	300	2886.621099561758	0
1	303	2911.790703518214	0
1	306	2925.85846637269	0
1	309	2946.70213664364	0
1	313	2962.028694851774	0
1	317	3030.178382390834	0
1	320	3068.036584607256	0
1	322	3090.590604078671	0
1	326	3164.008907021337	0
1	328	3190.375886730445	0
1	332	3196.860368651666	0
1	336	3226.513199614065	0
1	340	3336.249099675946	0
1	342	3344.728977148249	0
1	345	3369.96401568199	0
1	349	3381.324026270286	0
1	353	3430.336778523539	0
1	355	3443.858545049969	0
1	359	3464.014259303677	0
1	364	3479.404997374916	1
1	370	3496.774717054618	3
1	373	3515.568846768333	2
1	376	3529.998526396521	1
1	381	3550.888981818286	2
1	385	3562.752231128838	2
1	388	3587.204174307078	1
1	391	3596.299265176289	0
1	395	3623.112303915014	0
1	398	3634.26880085283	0
1	403	3659.776180005392	1
1	406	3667.546953375287	0
1	410	3695.9718516666	0
1	413	3708.555040271643	0
1	417	3760.093925770311	0
1	420	3798.447367413162	0
1	422	3814.768791881214	0
1	426	3831.370293097921	0
1	430	3891.826466046797	0
1	432	3908.717091810969	0
1	436	3945.966068793554	0
1	439	3995.916886794701	0
1	442	4029.940681376143	0
1	444	4043.236731732696	0
1	448	4081.517606562969	0
1	451	4156.835676128939	0
1	454	4224.629839737235	0
1	456	4231.425543263914	0
1	460	4257.091126785113	0
1	463	4274.113694780456	0
1	468	4289.214271287675	1
1	471	4310.404325807639	0
1	474	4325.930494007223	0
1	480	4346.486203861479	2
1	484	4358.951051855494	2
1	488	4382.063149279703	2
1	491	4391.4130514685	1
1	494	4418.081118609567	0
1	497	4423.680669723996	0
1	502	4454.317179949774	0
1	505	4475.16548020732	0
1	510	4490.216578250469	1
1	513	4507.252232861291	0
1	517	4550.203617068103	0
1	519	4562.946089776745	0
1	524	4584.106558852203	1
1	527	4598.73488361293	0
1	532	4616.939247645	1
1	535	4634.499452678182	0
1	538	4653.260778502803	0
1	541	4677.196610101085	0
1	545	4686.250965879943	0
1	549	4713.778606351075	0
1	552	4718.833922622943	0
1	559	4749.498235351505	2
1	561	4751.517758618397	1
1	566	4784.37375449238	1
1	568	4785.590741112381	0
1	573	4817.423176606105	0
1	576	4824.016438819269	0
1	580	4850.979940934522	0
1	585	4859.735784941696	1
1	588	4884.353080597487	0
1	592	4922.822769708968	0
1	594	4930.346000892503	0
1	599	4955.872743638313	1
1	602	4966.759060087895	0
1	605	4990.136406657686	0
1	608	5015.84061559147	0
1	612	5022.407197258167	0
1	616	5051.409002963951	0
1	619	5055.0130294477	0
1	624	5142.608141814297	0
1	627	5214.32590204462	0
1	629	5231.628290654961	0
1	633	5247.531703870957	0
1	637	5268.292683994932	0
1	641	5307.201841782216	0
1	642	5309.072694042404	0
1	647	5346.162678018506	0
1	649	5352.610862619732	0
1	653	5394.487611324147	0
1	654	5394.570767791517	0
1	659	5426.994403442856	0
1	663	5476.89501797234	0
1	666	5511.779506269885	0
1	668	5516.761747813463	0
1	672	5688.812193409158	0
1	674	5696.889016060808	0
1	678	5722.54891039925	0
1	681	5746.030350767526	0
1	685	5796.514157119991	0
1	688	5844.18371246381	0
1	689	5844.235091219346	0
1	695	5877.664225312995	1
1	697	5880.646412488793	0
1	702	5929.595665401618	0
1	705	5971.126976873242	0
1	707	5979.927877573206	0
1	712	6003.922882897274	1
1	716	6016.034948316548	1
1	719	6036.154252432183	0
1	722	6059.262527612713	0
1	725	6072.757482282469	0
1	730	6094.529249450167	1
1	733	6105.619166915514	0
1	737	6194.854613598216	0
1	739	6202.08285786983	0
1	745	6227.358938771834	2
1	749	6237.802229734038	2
1	752	6259.868707818803	1
1	755	6273.426956359592	0
1	759	6318.108967200483	0
1	761	6322.365231123564	0
1	765	6351.211957603222	0
1	768	6358.70700707377	0
1	772	6416.355447194753	0
1	773	6418.520356374848	0
1	778	6482.556421658613	0
1	779	6484.064000726843	0
1	783	6517.54717442667	0
1	787	6586.570569496292	0
1	789	6594.928586229114	0
1	793	6690.036645440231	0
1	795	6693.625849673061	0
1	799	6723.897457638747	0
1	803	6772.531020776256	0
1	806	6828.542458493796	0
1	808	6831.733049313793	0
1	811	6866.844235335549	0
1	814	6874.047700632689	0
1	817	6904.818896165677	0
1	820	6916.241633661921	0
1	824	6937.780924274419	0
1	827	6954.113585287301	0
1	831	7013.626989767535	0
1	833	7018.252362554643	0
1	837	7046.701530412308	0
1	840	7067.881233467639	0
1	843	7100.333648499108	0
1	847	7138.382561310775	0
1	849	7148.032378900368	0
1	853	7189.172164149376	0
1	855	7202.516788976055	0
1	859	7221.479877338231	0
1	863	7238.523875000969	0
1	867	7318.000359669207	0
1	869	7335.784710879388	0
1	873	7429.104070661921	0
1	876	7509.842712677976	0
1	878	7518.940598046244	0
1	882	7641.58103885627	0
1	884	7649.497742624124	0
1	889	7674.238743125027	1
1	893	7686.198805019911	1
1	896	7706.827542733651	0
1	900	7722.146534718713	0
1	904	7776.94167839084	0
1	907	7863.09746593663	0
1	909	7878.324550014195	0
1	914	7895.006736606988	1
1	917	7913.952968313151	0
1	920	7931.153209500563	0
1	924	7949.40554217972	0
1	928	8039.278793838461	0
1	930	8042.96091226828	0
1	933	8074.65129890936	0
1	937	8140.987580680412	0
1	940	8274.030609787319	0
1	943	8311.463441275831	0
1	945	8336.596852354536	0
1	949	8344.464906585757	0
1	953	8372.225907652052	0
1	957	8434.82213167962	0
1	959	8451.134155411504	0
1	963	8467.314710732841	0
1	969	8486.969070482453	2
1	975	8500.080779825318	4
1	980	8522.632882283325	5
1	983	8532.95188477707	4
1	987	8558.811929083461	4
1	990	8566.136841128295	3
1	993	8594.282345551697	2
1	995	8599.943895759789	1
1	1000	8629.716586128587	1
1	1003	8632.476448171574	1
1	1007	8665.912559130703	0
1	1010	8672.971176211343	0
1	1014	8702.87474442757	0
1	1017	8720.532213503691	0
1	1021	8785.501400956806	0
1	1023	8816.555871615949	0
1	1027	8853.924479049388	0
1	1030	8907.860204200286	0
1	1032	8913.000298362895	0
1	1036	8996.571367825839	0
1	1038	9008.19061740928	0
1	1042	9061.80916398596	0
1	1045	9149.417896146617	0
1	1047	9154.969501642946	0
1	1051	9182.589428427958	0
1	1054	9205.753934023207	0
1	1058	9288.85993950855	0
1	1061	9347.571804891279	0
1	1064	9402.201022532152	0
1	1067	9454.711876218422	0
1	1069	9484.80919371551	0
1	1072	9495.187779252471	0
1	1076	9619.408207940424	0
1	1078	9630.939380597251	0
1	1081	9662.536761519848	0
1	1085	9667.606000165311	0
1	1091	9695.993551651991	2
1	1094	9702.235434617837	1
1	1098	9729.506478283157	1
1	1102	9738.257291338782	1
1	1105	9762.612429644651	0
1	1109	9848.062263245911	0
1	1111	9860.151377917049	0
1	1115	9898.699421251144	0
1	1118	9982.500429083401	0
1	1121	10028.642608850376	0
1	1123	10033.723255976999	0
1	1127	10061.65022898649	0
1	1131	10106.998832700417	0
1	1133	10116.893246027423	0
1	1137	10156.944734106083	0
1	1139	10160.688992401891	0
1	1144	10190.839231057099	1
1	1147	10197.746227660341	0
1	1153	10224.415792342798	2
1	1156	10233.60207608416	1
1	1161	10256.780901007396	2
1	1164	10269.670788128528	1
1	1167	10289.957696919248	0
1	1172	10305.665365793607	1
1	1176	10323.795602460662	1
1	1179	10341.406326059671	0
1	1182	10372.249905145158	0
1	1185	10390.297471691687	0
1	1189	10404.709471779929	0
1	1193	10458.615283236899	0
1	1196	10535.308404224798	0
1	1199	10594.911632903027	0
1	1200	10595.731902933547	0
1	1205	10655.531746713174	0
1	1207	10660.584855299129	0
1	1211	10703.450107726859	0
1	1214	10787.869974278493	0
1	1217	10827.017020461854	0
1	1219	10846.945219167194	0
1	1223	10860.398183071328	0
1	1230	10882.529668732878	3
1	1233	10893.36969771324	2
1	1237	10918.062009434693	2
1	1241	10926.347355894655	2
1	1244	10954.042601177011	1
1	1246	10959.456606350359	0
1	1251	10990.184801843637	0
1	1254	11020.215580077512	0
1	1257	11029.255227122834	0
1	1261	11052.661592463761	0
1	1265	11088.444910070233	0
1	1267	11093.092392322588	0
1	1270	11121.897525927045	0
1	1273	11132.276088531271	0
1	1278	11154.677485452294	1
1	1282	11167.907411258335	1
1	1285	11188.304863642066	0
1	1289	11204.669979534294	0
1	1294	11221.31647861296	1
1	1299	11241.023573970223	2
1	1303	11253.654092737214	2
1	1309	11277.318063062593	4
1	1312	11286.497165164214	3
1	1317	11313.65967505476	4
1	1319	11318.697446469198	3
1	1323	11349.67554681637	2
1	1325	11351.34690065234	1
1	1329	11383.427582778812	0
1	1332	11385.338110666319	0
1	1337	11416.522893292188	0
1	1340	11422.611681098341	0
1	1344	11449.808199244474	0
1	1348	11459.390093482309	0
1	1353	11483.343840597328	1
1	1356	11495.670080853196	0
1	1360	11563.468872251287	0
1	1361	11564.40131452325	0
1	1367	11596.205147636041	1
1	1370	11600.760691965538	0
1	1373	11635.480438865381	0
1	1377	11682.324414021411	0
1	1380	11735.572573704209	0
1	1382	11767.552380929432	0
1	1386	11829.657882021204	0
1	1388	11836.091321782598	0
1	1392	11872.816867575917	0
1	1394	11880.518439491588	0
1	1399	11906.633167731343	1
1	1403	11916.387649540197	1
1	1406	11939.679904079023	0
1	1410	12013.544949492823	0
1	1412	12039.657991689315	0
1	1416	12075.322653860287	0
1	1417	12075.349996629831	0
1	1423	12108.755259135415	1
1	1425	12111.587022588812	0
1	1430	12141.769088129922	0
1	1434	12196.955950447736	0
1	1437	12231.000642468946	0
1	1440	12269.192729323753	0
1	1443	12320.635845124085	0
1	1445	12341.643361848314	0
1	1449	12353.511115761468	0
1	1453	12399.092815648788	0
1	1455	12407.279445553562	0
1	1459	12449.329681891333	0
1	1462	12491.479509436839	0
1	1464	12520.915354665902	0
1	1468	12582.508081279001	0
1	1471	12628.340193838133	0
1	1473	12640.707177268132	0
1	1476	12664.87465053131	0
1	1480	12676.609754740417	0
1	1484	12795.595518150025	0
1	1486	12811.029115797255	0
1	1490	12881.844277555659	0
1	1493	12928.919808942778	0
1	1494	12930.449961515392	0
1	1500	12961.681330916078	1
1	1504	12966.462200789244	1
1	1507	12995.349019444205	0
1	1510	13027.731205512676	0
1	1513	13050.471009939189	0
1	1518	13064.787101871382	1
1	1521	13083.489331634025	0
1	1524	13106.03610053035	0
1	1528	13144.914794074614	0
1	1530	13158.751076188366	0
1	1534	13222.677909713242	0
1	1537	13284.562508890502	0
1	1539	13289.128104656492	0
1	1543	13317.733100610945	0
1	1547	13379.107857512714	0
1	1549	13385.204014333296	0
1	1553	13412.086140494307	0
1	1556	13436.511239229321	0
1	1560	13445.129835053226	0
1	1564	13473.072522761969	0
1	1568	13510.719421778358	0
1	1571	13640.703291239572	0
1	1573	13671.538567289201	0
1	1577	13736.62278968	0
1	1579	13753.003739619044	0
1	1583	13852.825472438882	0
1	1584	13855.707080850151	0
1	1590	13886.346657927101	1
1	1593	13891.287217008896	0
1	1597	13918.290320945964	0
1	1600	13938.50223744199	0
1	1603	13969.845269068221	0
1	1606	13978.889366961082	0
1	1610	14062.513278475821	0
1	1612	14075.261309758213	0
1	1616	14119.973612559412	0
1	1618	14136.061635016922	0
1	1622	14153.45884708602	0
1	1625	14172.934709045273	0
1	1629	14210.943552853959	0
1	1631	14240.500947738465	0
1	1634	14269.797269247834	0
1	1637	14295.441923565297	0
1	1641	14334.509743807233	0
1	1644	14382.28794910363	0
1	1645	14384.296580586426	0
1	1650	14415.207126041947	0
1	1654	14419.944239220967	0
1	1658	14470.14903862928	0
1	1661	14507.43069768775	0
1	1663	14530.527664209095	0
1	1666	14542.394318850041	0
1	1670	14576.180078914246	0
1	1673	14609.409755687771	0
1	1675	14620.644184349297	0
1	1681	14641.962689032586	2
1	1684	14657.178028933174	1
1	1687	14675.227545275805	0
1	1691	14694.206687709596	0
1	1694	14721.852882730205	0
1	1697	14737.774008012679	0
1	1701	14754.458385075247	0
1	1706	14773.950957129976	1
1	1709	14787.952194235493	0
1	1714	14810.081358770254	1
1	1718	14820.053744982411	1
1	1722	14846.471809361919	1
1	1725	14853.229037752619	0
1	1729	14897.606171295118	0
1	1731	14920.114530598265	0
1	1735	14930.926049903442	0
1	1738	14959.946184852703	0
1	1742	15013.232436210842	0
1	1745	15103.031877327812	0
1	1746	15105.221842367916	0
1	1751	15136.43237035048	0
1	1754	15164.793138226435	0
1	1757	15190.474690600908	0
1	1760	15208.615522840702	0
1	1763	15231.399161695021	0
1	1767	15287.037909664728	0
1	1769	15299.40095096839	0
1	1772	15325.797763919923	0
1	1776	15335.771809168322	0
1	1780	15358.427034876548	0
1	1783	15373.382248228674	0
1	1786	15397.565922170584	0
1	1790	15409.183602249249	0
1	1794	15430.862310060821	0
1	1798	15444.980394060895	0
1	1801	15480.141499520785	0
1	1803	15481.908125495231	0
1	1808	15513.544426334934	0
1	1811	15532.06289521158	0
1	1815	15546.948475927066	0
1	1819	15568.082459802054	0
1	1824	15579.319588368604	1
1	1827	15603.796256518083	0
1	1831	15646.906057957037	0
1	1833	15651.821369908582	0
1	1837	15679.732422091568	0
1	1841	15714.33108957872	0
1	1844	15764.900805588212	0
1	1846	15797.690549288121	0
1	1850	15848.892478057564	0
1	1851	15851.803283417435	0
1	1856	15897.482736988386	0
1	1858	15920.114641616207	0
1	1862	15960.175450761268	0
1	1864	15965.964524341268	0
1	1869	15993.60692811656	1
1	1873	16002.548005384343	1
1	1876	16026.808619619897	0
1	1879	16041.635381314713	0
1	1883	16079.846052796507	0
1	1886	16116.43985385986	0
1	1889	16183.706534486063	0
1	1892	16245.07043835155	0
1	1894	16259.378764685207	0
1	1897	16282.604885546875	0
1	1900	16298.223173697477	0
1	1904	16315.843980431766	0
1	1908	16333.493979911826	0
1	1912	16380.148246369245	0
1	1914	16390.578414720656	0
1	1918	16413.281273361021	0
1	1922	16476.437956687318	0
1	1925	16568.587288125102	0
1	1928	16646.981611861742	0
1	1930	16661.086490588828	0
1	1935	16679.535110483834	1
1	1938	16696.749580460948	0
1	1941	16714.964744024964	0
1	1945	16811.643016459926	0
1	1946	16814.051322132285	0
1	1951	16856.417876043539	0
1	1953	16885.163884696874	0
1	1957	16935.497806718295	0
1	1959	16956.215372975858	0
1	1963	16996.491993886918	0
1	1965	17024.832763724354	0
1	1968	17029.147711366275	0
1	1973	17060.664040388635	0
1	1977	17157.618711438944	0
1	1979	17169.945222936633	0
1	1983	17233.134907446805	0
1	1986	17272.922523143953	0
1	1989	17337.042080623595	0
1	1990	17337.786505320736	0
1	1995	17370.462515068435	0
1	1999	17413.452988353628	0
1	2001	17434.073208029489	0
1	2004	17466.511777518176	0
1	2007	17496.703051135514	0
1	2010	17522.662279705603	0
1	2014	17532.427530782975	0
1	2018	17555.662520094392	0
1	2022	17568.330710000684	0
1	2026	17588.524420947268	0
1	2030	17603.697931864927	0
1	2034	17621.562089847489	0
1	2038	17639.590031751806	0
1	2043	17654.658266333124	1
1	2046	17675.404239317387	0
1	2050	17687.951504946713	0
1	2055	17712.746471226367	1
1	2058	17720.791012450047	0
1	2062	17825.794972662333	0
1	2064	17834.292822861567	0
1	2068	17858.8865731821	0
1	2071	17879.274781864387	0
1	2075	17892.32709208688	0
1	2079	17914.816683520911	0
1	2083	17925.169823069693	0
1	2088	17950.649432071104	1
1	2092	17957.708654670803	1
1	2095	17986.801352660403	0
1	2098	17999.545088729723	0
1	2102	18022.664060248935	0
1	2105	18037.222503524623	0
1	2109	18059.090059074317	0
1	2112	18094.834629647998	0
1	2114	18095.643437836107	0
1	2119	18162.741290005931	0
1	2122	18207.126269132331	0
1	2125	18250.762298972452	0
1	2127	18272.257087577009	0
1	2130	18285.816039876813	0
1	2135	18308.062006520873	1
1	2138	18317.901314785162	0
1	2142	18352.520265587472	0
1	2144	18379.859167145899	0
1	2147	18409.662312448725	0
1	2151	18530.293606807739	0
1	2153	18552.235712747417	0
1	2156	18582.060565249452	0
1	2159	18601.046320158842	0
1	2162	18623.118194082034	0
1	2166	18636.454490061696	0
1	2169	18661.889383320309	0
1	2172	18678.316257619581	0
1	2175	18696.700499623998	0
1	2179	18713.971419315378	0
1	2183	18764.829479845547	0
1	2186	18797.941555519827	0
1	2189	18859.789381995112	0
1	2191	18864.429940550335	0
1	2195	18892.243604522133	0
1	2198	18911.139064545496	0
1	2202	18925.036453400316	0
1	2205	18953.128104206843	0
1	2209	19012.225506109533	0
1	2212	19045.322245560884	0
1	2215	19080.198618960167	0
1	2217	19108.549494508536	0
1	2220	19143.545359279231	0
1	2224	19202.187329859005	0
1	2227	19238.870646990677	0
1	2229	19268.780752648469	0
1	2232	19275.96781655432	0
1	2236	19304.844322734013	0
1	2239	19319.313700666441	0
1	2243	19360.034587580403	0
1	2246	19411.227763055514	0
1	2248	19441.054303499571	0
1	2251	19451.070450105764	0
1	2255	19536.28191311904	0
1	2258	19603.23808930675	0
1	2259	19604.699899846022	0
1	2264	19642.809299036574	0
1	2266	19652.382563657026	0
1	2270	19676.049037402312	0
1	2274	19768.21194499348	0
1	2277	19851.545158713333	0
1	2280	19908.147058604762	0
1	2283	19962.924416731185	0
1	2286	20012.630687937912	0
1	2287	20014.859062027188	0
1	2293	20044.713885370168	1
1	2296	20050.148887225152	0
1	2300	20086.714598968194	0
1	2303	20170.576542599823	0
1	2306	20206.682853091448	0
1	2308	20215.168694136347	0
1	2312	20284.424293055406	0
1	2314	20307.641977341008	0
1	2317	20336.388566834366	0
1	2321	20344.000590663919	0
1	2327	20369.736027027657	2
1	2330	20379.574713508631	1
1	2333	20403.282009199831	0
1	2336	20427.943028284536	0
1	2339	20449.658989466393	0
1	2344	20463.753067161784	1
1	2348	20481.565842012202	1
1	2352	20499.895438887248	1
1	2356	20514.52656317579	1
1	2359	20535.204221638131	0
1	2363	20548.065036061697	0
1	2367	20623.307454558803	0
1	2370	20675.239495149496	0
1	2373	20719.180672430051	0
1	2375	20733.126220645921	0
1	2379	20818.777030049884	0
1	2382	20853.262721515972	0
1	2384	20858.126940023623	0
1	2389	20886.186493599122	1
1	2393	20894.792242299385	1
1	2397	20919.185338414666	1
1	2402	20931.287845773826	2
1	2405	20952.46192147562	1
1	2408	20967.622170364503	0
1	2412	21019.991103334064	0
1	2415	21055.255080051074	0
1	2417	21083.645738679109	0
1	2420	21097.512897333722	0
1	2424	21119.760614705826	0
1	2427	21132.573598669513	0
1	2431	21155.613858886189	0
1	2434	21173.879605450888	0
1	2438	21280.801871917432	0
1	2440	21293.204977140004	0
1	2444	21328.672851095281	0
1	2447	21393.948595327148	0
1	2449	21417.368198710762	0
1	2453	21455.942923089799	0
1	2455	21463.843009361469	0
1	2462	21487.749671418777	3
1	2465	21499.616516878767	2
1	2468	21520.521900663526	1
1	2472	21534.867891865339	1
1	2475	21553.68041065322	0
1	2479	21570.638902142328	0
1	2483	21586.434843064456	0
1	2487	21623.524360918764	0
1	2489	21628.473286192751	0
1	2493	21656.680704408237	0
1	2497	21734.333743850318	0
1	2499	21738.418170053783	0
1	2504	21766.99743527575	1
1	2507	21774.580615305558	0
1	2510	21800.685561925356	0
1	2513	21826.54567182026	0
1	2517	21872.555470142592	0
1	2520	21918.043307448689	0
1	2522	21922.838849572155	0
1	2526	21951.384611754729	0
1	2530	21958.475407276497	0
1	2534	22010.211173742737	0
1	2537	22044.697348200521	0
1	2540	22156.808474859178	0
1	2542	22175.805180737571	0
1	2545	22204.293385335621	0
1	2549	22245.990134541885	0
1	2551	22276.759432491067	0
1	2555	22368.480849855337	0
1	2558	22508.138002519433	0
1	2560	22531.54121366787	0
1	2563	22545.879175856544	0
1	2566	22573.342392108833	0
1	2569	22578.857371295185	0
1	2574	22681.352645553676	0
1	2575	22682.066799682156	0
1	2582	22714.556668241195	2
1	2585	22718.580331275529	1
1	2588	22747.774365445255	0
1	2591	22762.622062492677	0
1	2596	22781.309485007704	1
1	2599	22798.392906272934	0
1	2603	22813.74766132274	0
1	2607	22834.005492317683	0
1	2610	22865.218672443588	0
1	2614	22908.136561441461	0
1	2617	23060.266588978006	0
1	2619	23073.697902205381	0
1	2623	23111.373639770033	0
1	2625	23143.204423665274	0
1	2629	23180.299337358597	0
1	2631	23209.599585279323	0
1	2634	23221.207770411305	0
1	2639	23245.191389774376	1
1	2643	23254.367770484231	1
1	2648	23281.498722142419	2
1	2650	23286.640195315753	1
1	2654	23316.948587569992	0
1	2657	23333.691826824556	0
1	2661	23369.47980084221	0
1	2663	23376.336690577815	0
1	2668	23403.045527571713	1
1	2671	23412.389574899444	0
1	2675	23461.307020077039	0
1	2677	23477.580801253776	0
1	2681	23494.497505208039	0
1	2685	23514.008793991508	0
1	2689	23681.149231526489	0
1	2692	23722.305726980078	0
1	2695	23761.319219669392	0
1	2697	23778.118244654024	0
1	2701	23852.627733481042	0
[...]
4	2311	20251.039705406107	1
4	2316	20317.877286811593	0
4	2320	20344.000590663919	1
4	2326	20369.736027027657	0
4	2329	20379.574713508631	1
4	2332	20403.282009199831	0
4	2335	20416.602488988416	1
4	2338	20436.42071540089	0
4	2343	20463.753067161784	1
4	2347	20481.565842012202	0
4	2351	20499.895438887248	1
4	2355	20514.52656317579	0
4	2358	20535.204221638131	1
4	2362	20548.065036061697	0
4	2365	20571.195992426134	1
4	2366	20581.564265077592	0
4	2369	20656.267097244414	0
4	2372	20708.052188783577	0
4	2377	20751.735076015367	0
4	2378	20768.6877415524	1
4	2381	20851.434518950538	0
4	2388	20886.186493599122	0
4	2392	20894.792242299385	1
4	2396	20919.185338414666	0
4	2401	20931.287845773826	1
4	2404	20952.46192147562	0
4	2407	20967.622170364503	1
4	2410	20986.08586808198	0
4	2411	21003.809984125588	1
4	2414	21052.708459508547	0
4	2418	21089.028917373817	0
4	2423	21119.760614705826	1
4	2426	21129.314877492592	0
4	2430	21155.613858886189	1
4	2433	21165.662653102658	0
4	2436	21191.38170011617	1
4	2437	21206.968549449835	0
4	2442	21313.238715791934	0
4	2443	21328.625829384107	1
4	2446	21361.054440030234	0
4	2451	21426.971468726139	0
4	2452	21453.365549198941	1
4	2461	21487.749671418777	0
4	2464	21499.616516878767	1
4	2467	21520.521900663526	0
4	2471	21534.867891865339	1
4	2474	21553.68041065322	0
4	2478	21570.638902142328	1
4	2482	21586.434843064456	0
4	2485	21605.492900540958	1
4	2486	21620.363025815062	0
4	2492	21656.680704408237	0
4	2495	21663.791274500731	1
4	2496	21689.642639546719	0
4	2503	21766.99743527575	0
4	2506	21774.580615305558	1
4	2509	21799.853341543076	0
4	2512	21810.597321067488	1
4	2515	21832.550978542202	0
4	2516	21861.706798130221	1
4	2519	21905.544870538394	0
4	2525	21951.384611754729	0
4	2529	21958.475407276497	1
4	2532	21984.978657506649	0
4	2533	21993.042820254401	1
4	2536	22043.872104214933	0
4	2539	22077.463887297288	0
4	2544	22189.949593041674	0
4	2547	22212.399740223955	1
4	2548	22237.025106788974	0
4	2552	22279.525126551153	0
4	2554	22312.287108430519	1
4	2557	22400.896187221733	0
4	2562	22541.610369842969	0
4	2565	22566.877019715174	1
4	2568	22578.857371295185	0
4	2572	22609.200863331538	1
4	2573	22611.534381415198	0
4	2581	22714.556668241195	0
4	2584	22718.580331275529	1
4	2587	22747.774365445255	0
4	2590	22753.936739067867	1
4	2595	22781.309485007704	0
4	2598	22798.392906272934	1
4	2602	22813.74766132274	0
4	2606	22834.005492317683	1
4	2609	22845.955228434492	0
4	2612	22870.808465733552	1
4	2613	22898.246459600473	0
4	2616	22940.439579553854	0
4	2621	23092.816404790826	0
4	2622	23110.042774776824	1
4	2626	23144.721595476336	0
4	2628	23179.281019960975	1
4	2632	23213.511043095391	0
4	2638	23245.191389774376	1
4	2642	23254.367770484231	0
4	2647	23281.498722142419	1
4	2649	23286.640195315753	0
4	2653	23316.948587569992	1
4	2655	23319.416694175552	0
4	2659	23353.4138901265	1
4	2660	23366.32546113185	0
4	2667	23403.045527571713	0
4	2670	23412.389574899444	1
4	2673	23435.993158684169	0
4	2674	23447.599234309947	1
4	2680	23494.497505208039	0
4	2684	23514.008793991508	1
4	2687	23527.386656515471	0
4	2688	23549.628099659808	1
4	2691	23714.199111828372	0
4	2694	23756.617752366981	0
4	2699	23794.282849379454	0
4	2700	23814.181148564348	1
4	2706	23886.296235631753	0
4	2712	23900.967794968694	1
4	2715	23919.34528100641	0
4	2718	23936.384833432621	1
4	2721	23952.161382450606	0
4	2722	23973.082909393411	1
4	2727	24054.015619304148	0
4	2728	24058.932301224349	1
4	2731	24121.547999581989	0
4	2737	24156.794549013242	0
4	2740	24178.595737440004	1
4	2743	24190.270567300403	0
4	2747	24218.994224816193	1
4	2751	24229.708107090414	0
4	2754	24254.932371644145	1
4	2755	24262.296304263146	0
4	2761	24384.531144454693	0
4	2764	24391.899682929088	1
4	2767	24418.188507411798	0
4	2768	24432.350087917972	1
4	2771	24634.741277578233	0
4	2776	24682.941842545385	0
4	2777	24710.527379276173	1
4	2784	24751.929536035526	0
4	2787	24761.276749530748	1
4	2791	24785.599449619854	0
4	2794	24797.483332080793	1
4	2795	24818.16026701522	0
4	2800	24907.368022990722	0
4	2803	24926.59712068954	1
4	2806	24942.762485997868	0
4	2807	24965.519010892817	1
4	2810	25038.357332495719	0
4	2813	25074.845637623104	0
4	2818	25156.328534134524	0
4	2819	25182.812955501602	1
4	2825	25223.086622990814	0
4	2828	25239.513822383181	1
4	2829	25256.460346417707	0
4	2834	25361.772522362152	0
4	2835	25376.436810282966	1
4	2840	25476.489917012018	0
4	2843	25487.171273046167	1
4	2845	25513.887006913767	0
4	2849	25545.109738508855	1
4	2852	25574.640981321569	0
4	2853	25604.116397458978	1
4	2860	25710.698774416307	0
4	2864	25720.677314853495	1
4	2868	25743.686169675354	0
4	2871	25756.636157814409	1
4	2874	25777.154354541874	0
4	2877	25792.966373440791	1
4	2881	25822.384510113684	0
4	2884	25844.860101304458	1
4	2885	25855.38782888551	0
4	2888	25907.701093845998	0
4	2893	25946.880855743179	0
4	2896	25959.960884223721	1
4	2897	25986.178141660873	0
4	2902	26025.038236954278	0
4	2903	26033.378052435989	1
4	2908	26070.528256632869	0
4	2909	26081.609312650246	1
4	2914	26139.340431513095	0
4	2915	26149.309978121888	1
4	2922	26182.563429727741	0
4	2926	26192.859247543135	1
4	2929	26215.762967928672	0
4	2932	26228.733772735507	1
4	2936	26248.294334070533	0
4	2941	26275.872762947672	1
4	2943	26281.203430255331	0
4	2947	26312.18990960187	1
4	2948	26314.25141632385	0
4	2953	26438.00225666713	0
4	2954	26467.469418794701	1
4	2958	26506.339750343331	0
4	2962	26539.758376721752	1
4	2966	26563.864871952974	0
4	2970	26588.541069799806	1
4	2973	26596.655355841979	0
4	2976	26623.896809745931	1
4	2980	26652.686815142866	0
4	2984	26669.994555583086	1
4	2987	26685.286244451248	0
4	2988	26706.122853286208	1
4	2991	26743.39720326756	0
4	2996	26820.484706908017	0
4	2997	26843.969320812213	1
4	3000	26883.918052340108	0
4	3006	26951.307082166639	0
4	3011	26974.582963877438	1
4	3015	26984.552490633762	0
4	3018	27010.687360405192	1
4	3021	27017.793848534613	0
4	3022	27045.991307306603	1
4	3025	27154.424410707288	0
4	3028	27192.777923569648	0
4	3031	27288.159075212213	0
4	3038	27332.436424717377	0
4	3041	27342.13337404469	1
4	3044	27365.017368348766	0
4	3045	27378.750245810901	1
4	3050	27531.637797227625	0
4	3051	27538.051484680006	1
4	3057	27581.540103101659	0
4	3060	27598.30226000129	1
4	3063	27614.21858324384	0
4	3067	27641.645746932577	1
4	3071	27651.690965191851	0
4	3075	27676.791517014013	1
4	3078	27684.657127360715	0
4	3081	27713.323748552771	1
4	3082	27718.788916775549	0
4	3085	27770.323542107581	0
4	3090	27810.044211069913	0
4	3091	27827.388988872904	1
4	3095	27882.937261385457	0
4	3099	27917.441987797342	1
4	3101	27945.272063383974	0
4	3106	27978.833494151958	1
4	3108	27980.259970088158	0
4	3112	28015.004025415302	1
4	3114	28019.377593045366	0
4	3119	28051.464939413995	1
4	3122	28068.043406349675	0
4	3125	28087.339472812243	1
4	3127	28109.234263779963	0
4	3131	28140.972546200895	1
4	3132	28145.631994544619	0
4	3137	28238.86651039383	0
4	3139	28260.137072162283	1
4	3143	28290.083475864537	0
4	3144	28296.959220764572	1
4	3150	28333.287728715266	0
4	3154	28341.557586736078	1
4	3158	28366.849594436034	0
4	3161	28377.241831337476	1
4	3165	28398.962866856219	0
4	3169	28425.424979359923	1
4	3171	28431.3809594228	0
4	3173	28461.61042588391	1
4	3178	28574.566712891256	0
4	3182	28604.935589751718	1
4	3185	28612.004413325601	0
4	3188	28641.254892651041	1
4	3190	28661.110239684081	0
4	3195	28693.845335529291	1
4	3198	28702.959597032022	0
4	3199	28730.492806998321	1
4	3202	28771.262254672222	0
4	3208	28826.244396623501	0
4	3212	28848.331326715152	1
4	3215	28859.098858772683	0
4	3219	28884.756494289157	1
4	3222	28902.349269712827	0
4	3223	28920.702543419616	1
4	3229	28982.775039916235	0
4	3233	28996.03503033788	1
4	3237	29014.939905834204	0
4	3241	29032.023810570469	1
4	3244	29047.400982838097	0
4	3245	29067.479551152002	1
4	3248	29118.170470572558	0
4	3251	29187.733173333085	0
4	3254	29236.231420965472	0
4	3261	29287.82361210719	0
4	3265	29311.418142412763	1
4	3269	29321.310751623001	0
4	3272	29346.889950606748	1
4	3276	29353.524141303635	0
4	3280	29383.548406863249	1
4	3282	29386.914437155458	0
4	3288	29420.125021479236	1
4	3290	29425.510008405813	0
4	3296	29456.871333450293	1
4	3298	29458.920836241558	0
4	3304	29491.700768140567	0
4	3306	29493.428862368175	1
4	3310	29525.279142335628	0
4	3311	29529.341465710732	1
4	3316	29598.098254427248	0
4	3317	29618.971745996406	1
4	3323	29658.573941402321	0
4	3327	29670.081636587763	1
4	3331	29691.154256898652	0
4	3335	29706.209890909916	1
4	3338	29724.123631304704	0
4	3339	29742.069530630575	1
4	3347	29787.29310977008	0
4	3350	29791.557366663852	1
4	3354	29820.111727945941	0
4	3357	29827.392080370781	1
4	3360	29853.082402248517	0
4	3361	29863.52427623927	1
4	3364	29908.419034230778	0
4	3367	30007.249552862374	0
4	3370	30116.01944590206	0
4	3373	30170.115115716927	0
4	3381	30275.394956025644	0
4	3384	30283.306164268742	1
4	3388	30307.622566813175	0
4	3391	30318.745112680287	1
4	3394	30340.123002351961	0
4	3395	30354.533084730835	1
4	3398	30464.46658638633	0
4	3403	30499.447102390312	0
4	3404	30518.95722550197	1
4	3411	30618.07692497606	0
4	3415	30634.736430650093	1
4	3419	30651.480399860353	0
4	3423	30670.542905479499	1
4	3426	30684.792783516058	0
4	3430	30706.665494991405	1
4	3433	30717.375547481956	0
4	3437	30743.495975730984	1
4	3440	30764.4797072376	0
4	3441	30779.187793287708	1
4	3446	30845.151257264941	0
4	3449	30874.640569958253	1
4	3450	30882.474812335241	0
4	3453	30929.238537145611	0
4	3458	30965.795162438452	0
4	3459	30983.674208841783	1
4	3462	31092.637440586928	0
4	3465	31129.826308669176	0
4	3468	31221.906141132288	0
4	3474	31257.255724224385	0
4	3477	31285.635191456684	1
4	3478	31291.19586301175	0
4	3481	31337.679840982302	0
4	3486	31382.959807229734	0
4	3487	31387.30634537908	1
4	3490	31421.653788334754	0
4	3495	31461.249192976662	0
4	3496	31469.496707853189	1
4	3499	31508.956378746619	0
4	3505	31607.762812584897	0
4	3508	31612.494777075187	1
4	3511	31640.128550498989	0
4	3512	31653.802826349703	1
4	3517	31687.905788443791	0
4	3518	31701.103260155403	1
4	3521	31771.982471880113	0
4	3529	31824.084052299822	0
4	3532	31835.675018313119	1
4	3536	31856.899098431313	0
4	3539	31872.465672119167	1
4	3542	31890.072738395704	0
4	3543	31908.11547868249	1
4	3546	31986.041064055094	0
4	3551	32031.331437851013	0
4	3554	32054.918054335273	1
4	3555	32079.203102914486	0
4	3560	32116.525790715406	0
4	3561	32144.23415558661	1
4	3564	32202.448141385472	0
4	3567	32291.884164922015	0
4	3570	32328.724849219166	0
4	3575	32417.766444415437	0
4	3578	32430.836242103011	1
4	3579	32454.35017882825	0
4	3582	32491.844740959305	0
4	3587	32536.808545412913	0
4	3588	32564.866228329441	1
4	3591	32611.545582500637	0
4	3596	32652.227799082716	0
4	3597	32663.304278797718	1
4	3602	32742.252959193593	0
4	3603	32768.780483687344	1
4	3606	32824.123693788981	0
4	3611	32923.889120518642	0
4	3612	32942.632611085466	1
4	3617	32989.255162657472	0
4	3618	33006.069882434408	1
4	3621	33068.696032141299	0
4	3626	33116.60305331849	0
4	3629	33126.825164710321	1
4	3630	33153.903306610182	0
4	3635	33210.800309146964	0
4	3636	33219.931868506123	1
4	3641	33284.143307107899	0
4	3644	33305.419567090189	1
4	3645	33326.484123001812	0
4	3650	33382.689306793795	0
4	3653	33411.632868992099	1
4	3654	33430.139352865833	0
4	3660	33470.849194605963	0
4	3663	33478.47070235489	1
4	3666	33503.360085482689	0
4	3667	33520.021991826672	1
4	3672	33582.090788751129	0
4	3675	33597.420131260408	1
4	3677	33623.442445538	0
4	3679	33654.015934660805	1
4	3684	33701.066326761382	0
4	3685	33721.965724606027	1
4	3693	33806.288181392104	0
4	3696	33820.988496160429	1
4	3699	33839.073522528756	0
4	3702	33856.720994270963	1
4	3703	33871.434494461988	0
4	3708	33952.145325771573	0
4	3709	33978.03350499609	1
4	3712	34022.272567032267	0
4	3717	34064.987949592886	0
4	3718	34077.45547161231	1
4	3721	34113.585701939109	0
4	3724	34354.470321512273	0
4	3729	34410.848277059884	0
4	3733	34439.292811140789	1
4	3736	34460.831923841785	0
4	3737	34475.566822555664	1
4	3741	34698.808064605207	0
4	3746	34729.130089073422	1
4	3749	34741.648083362449	0
4	3750	34765.730237760642	1
4	3755	34817.9673799136	0
4	3756	34841.653590490629	1
4	3762	34881.61752683229	0
4	3767	34891.885158161334	1
4	3772	34914.243786162511	0
4	3775	34928.487975810859	1
4	3778	34946.550359153578	0
4	3782	34964.045015558311	1
4	3786	34979.636249148575	0
4	3791	35000.006476054091	1
4	3794	35012.348108126686	0
4	3800	35035.114991902464	1
4	3803	35045.134149694522	0
4	3806	35071.592496586135	1
4	3809	35078.267606275089	0
4	3812	35107.435978135451	1
4	3813	35130.152922609071	0
4	3819	35180.94939872558	0
4	3823	35193.463990647641	1
4	3826	35213.782063427408	0
4	3830	35229.512917433265	1
4	3833	35254.287834034514	0
4	3834	35265.070324484914	1
4	3840	35328.349934731604	0
4	3843	35343.94288023796	1
4	3844	35360.726379731302	0
4	3848	35405.395558844758	0
4	3850	35441.478720416297	1
4	3855	35493.390952397067	0
4	3856	35497.435524478889	1
4	3859	35531.861766978525	0
4	3863	35569.364288663846	0
4	3865	35602.799445787858	1
4	3870	35645.794203413564	0
4	3871	35672.28529455038	1
4	3876	35826.243207362083	0
4	3877	35832.708397610049	1
4	3880	35908.550792747484	0
4	3885	35952.601540778544	0
4	3888	35963.337518730337	1
4	3892	35990.352231074282	0
4	3896	36005.182363749363	1
4	3899	36022.937469878618	0
4	3900	36041.14856355389	1
4	3906	36100.269949413545	0
4	3909	36106.456009432081	1
4	3912	36133.001434543767	0
4	3916	36165.853108721033	0
4	3917	36166.089239593279	1
4	3924	36210.789234797052	0
4	3929	36234.639782056887	1
4	3932	36243.640348619885	0
4	3936	36270.45142942521	1
4	3940	36277.026662712524	0
4	3944	36306.801849657524	1
4	3947	36309.959046519118	0
4	3953	36342.498874969395	1
4	3955	36342.828425026412	0
4	3961	36375.011481776497	0
4	3963	36377.71409803472	1
4	3967	36408.276488305143	0
4	3970	36413.035967021711	1
4	3973	36441.416454915575	0
4	3974	36452.583457809593	1
4	3979	36515.785959883997	0
4	3980	36534.412070441423	1
4	3985	36584.240432643455	0
4	3986	36589.808306731244	1
4	3989	36623.120719596751	0
4	3996	36724.958823495738	0
4	4002	36738.13914995702	1
4	4005	36757.989366337605	0
4	4010	36774.813994655131	1
4	4013	36791.322618401908	0
4	4017	36810.37957128899	1
4	4020	36824.485660984431	0
4	4023	36846.42539533929	1
4	4027	36858.1784931324	0
4	4030	36882.157482927784	1
4	4031	36890.49213567647	0
4	4034	36931.258176238545	0
4	4037	36995.991397710548	0
4	4042	37031.318997200967	0
4	4045	37041.36107910432	1
4	4048	37065.837574050035	0
4	4049	37081.037586964042	1
4	4054	37181.559752160573	0
4	4055	37204.229190929393	1
4	4058	37251.24618349562	0
4	4064	37323.465327991208	0
4	4067	37339.977552898932	1
4	4068	37356.529287808862	0
4	4075	37395.19232044916	0
4	4079	37414.760639038677	1
4	4082	37428.724419395316	0
4	4086	37450.937126445914	1
4	4089	37461.165344946215	0
4	4092	37487.536724082447	1
4	4093	37510.412419338893	0
4	4098	37546.36438205528	0
4	4100	37553.055370113006	1
4	4102	37585.084956131387	0
4	4108	37621.494013184067	0
4	4112	37633.488112528303	1
4	4115	37654.208234982332	0
4	4116	37669.437606332421	1
4	4122	37829.343202600003	0
4	4125	37849.652995056842	1
4	4126	37862.141795662584	0
4	4131	37950.337078115777	0
4	4134	37963.070532654561	1
4	4135	37991.196099859785	0
4	4139	38028.889066613971	0
4	4144	38060.045611447171	1
4	4148	38074.00251457281	0
4	4151	38095.782040291148	1
4	4152	38107.916644883729	0
4	4158	38142.686656066121	0
4	4161	38152.587646494301	1
4	4163	38175.955636104816	0
4	4170	38206.493490288808	1
4	4174	38217.14703645313	0
4	4178	38242.448451290713	1
4	4181	38250.952868041733	0
4	4184	38277.360942542586	1
4	4187	38283.842742833077	0
4	4190	38312.90916031843	1
4	4193	38333.445628258524	0
4	4197	38353.790780088562	1
4	4202	38369.35520088937	0
4	4206	38389.709320174101	1
4	4210	38402.561307647042	0
4	4213	38425.244303415201	1
4	4216	38435.528066625749	0
4	4219	38461.110587741183	1
4	4221	38481.758163545787	0
4	4223	38514.116349081936	1
4	4226	38595.891453852581	0
4	4232	38662.704737791783	0
4	4235	38669.305239622137	1
4	4236	38695.171997372747	0
4	4239	38783.933810440887	0
4	4245	38839.012086804179	0
4	4248	38848.545793416773	1
4	4251	38871.774194608111	0
4	4252	38889.918255838663	1
4	4257	38934.845190230098	0
4	4261	38952.996991574547	1
4	4264	38972.81646573551	0
4	4267	38989.71148302137	1
4	4268	39007.436394710066	0
4	4271	39059.101534469868	0
4	4277	39104.784104914885	0
4	4281	39120.822913653446	1
4	4284	39136.530395995692	0
4	4285	39156.971488115538	1
4	4288	39218.222539045367	0
4	4291	39283.675072076409	0
4	4298	39347.12891096476	0
4	4301	39358.057371473494	1
4	4304	39381.559052917867	0
4	4305	39394.284827285476	1
4	4308	39428.639337554269	0
4	4311	39477.474105344709	0
4	4316	39516.593258488039	0
4	4317	39545.699839728707	1
4	4322	39597.393693066086	0
4	4326	39617.187008948519	1
4	4329	39631.390594459786	0
4	4330	39652.994511607711	1
4	4336	39705.036056170652	0
4	4340	39713.824658492461	1
4	4343	39738.029509481168	0
4	4344	39749.49665608654	1
4	4347	39792.814382939746	0
4	4353	39838.827384361914	0
4	4357	39863.772724117945	1
4	4360	39871.784426039252	0
4	4363	39899.580808826008	1
4	4364	39907.179046492763	0
4	4369	40032.940287115317	0
4	4372	40055.195222311605	1
4	4375	40069.432068668586	0
4	4376	40094.50245527623	1
4	4381	40140.962524770591	0
4	4384	40163.533556961718	1
4	4385	40176.042152139147	0
4	4391	40215.441412077835	0
4	4394	40237.523964829739	1
4	4395	40248.050622937005	0
4	4400	40328.288792683679	0
4	4404	40360.800351368584	1
4	4405	40361.192559567452	0
4	4410	40409.388894122343	0
4	4411	40418.097842878683	1
4	4416	40452.244806138364	0
4	4418	40481.310405257208	1
4	4422	40512.855236668649	0
4	4425	40539.45551556478	1
4	4426	40560.266524013145	0
4	4432	40599.006137691277	0
4	4435	40609.532050468894	1
4	4438	40632.410634199127	0
4	4441	40652.720687883073	1
4	4442	40665.231250253117	0
4	4446	40735.294586855617	0
4	4450	40767.860794637819	1
4	4451	40780.424800619513	0
4	4457	40821.761715885028	0
4	4460	40832.053648230124	1
4	4464	40854.913003938719	0
4	4467	40881.144252722329	1
4	4468	40888.053269983152	0
4	4471	40944.99663261398	0
4	4477	41014.030608359479	0
4	4481	41023.761438291361	1
4	4484	41046.760168720185	0
4	4485	41059.191998259595	1
4	4488	41119.336436076123	0
4	4491	41155.390322729004	0
4	4494	41203.548684133182	0
4	4499	41262.799499375006	0
4	4500	41286.203707608095	1
4	4505	41323.02264997572	0
4	4506	41332.145483658892	1
4	4510	41391.751532503454	0
4	4514	41422.815962397295	1
4	4517	41438.160240336259	0
4	4520	41459.791292676748	1
4	4523	41476.682823322159	0
4	4524	41496.000977842259	1
4	4529	41535.905640560691	0
4	4530	41545.815017840838	1
4	4535	41592.833041541754	0
4	4536	41598.353323518259	1
4	4539	41634.536378049709	0
4	4544	41708.990640014795	0
4	4547	41729.744161110812	1
4	4548	41748.065806382827	0
4	4554	41806.773920866775	0
4	4558	41825.509296079834	1
4	4562	41839.271836958075	0
4	4566	41862.465416699416	1
4	4569	41871.954428299553	0
4	4572	41898.467101466	1
4	4573	41919.87764247808	0
4	4576	41953.36158235904	0
4	4584	41994.088859482712	0
4	4587	42007.038045813475	1
4	4590	42027.748214665866	0
4	4594	42043.778730021924	1
4	4598	42060.450444850702	0
4	4601	42080.077018755041	1
4	4602	42093.380851385772	0
4	4605	42175.585637414367	0
4	4609	42244.223625769948	0
4	4611	42278.864229384801	1
4	4614	42338.87092267069	0
4	4619	42378.661926819673	0
4	4622	42389.153255367836	1
4	4623	42411.703227750679	0
4	4629	42483.501296010023	0
4	4632	42486.763929349102	1
4	4633	42516.945354525099	0
4	4636	42557.173651951215	0
4	4639	42590.813507228556	0
4	4645	42661.035309113388	0
4	4649	42666.822203843534	1
4	4653	42693.615485735706	0
4	4656	42702.942780453841	1
4	4660	42725.956987799022	0
4	4665	42745.304023914994	1
4	4669	42759.218190203724	0
4	4674	42781.096409746993	1
4	4677	42791.900888438572	0
4	4681	42817.123212032986	1
4	4684	42824.89706694875	0
4	4687	42853.304829869233	1
4	4688	42857.541175742534	0
4	4691	42913.701001817683	0
4	4694	42977.630434619392	0
4	4697	43041.184925341518	0
4	4702	43104.278795197995	0
4	4703	43118.853039394095	1

