version 2
run General-3-20180202-18:51:47-7768
attr configname General
attr datetime 20180202-18:51:47
attr experiment General
attr inifile carrefour.ini
attr iterationvars $0=6
attr iterationvarsf 6-
attr measurement $0=6
attr network Carrefour
attr processid 7768
attr repetition 1
attr replication #1
attr resultdir results
attr runnumber 3
attr seedset 3
param **.lambda 6
param **.numeroCasse 10
param **.mu 30
param **.tipoSimulazione 0
param **.delay 0
param **.ServiceType 0

vector 0 Carrefour.coda 1_Lambda:vector ETV
attr source Interarrivals
attr title "1/lambda, vector"
vector 1 Carrefour.coda E_Nq:vector ETV
attr source QueueLenght
attr title "E[Nq], vector"
vector 2 Carrefour.coda E_W:vector ETV
attr source Queuing
attr title "E[W], vector"
vector 3 Carrefour.decisore E_R:vector ETV
attr source TotalTime
attr title "E[R], vector"
vector 4 Carrefour.decisore ActiveTillStat:vector ETV
attr source ActiveTill
attr title "Active Till, vector"
0	1	7	7
0	3	9.616655627832	2.616655627832
0	5	16.785880330083	7.169224702251
0	7	21.748928373614	4.963048043531
0	10	25.511000783034	3.76207240942
0	13	32.713279483695	7.202278700661
0	16	48.398704770975	15.68542528728
0	19	65.468440766079	17.069735995104
0	22	80.820896099587	15.352455333508
0	25	88.052556219623	7.231660120036
0	28	93.652277485578	5.599721265955
0	33	100.448798880659	6.796521395081
0	36	111.41830469942	10.969505818761
0	39	136.813919738012	25.395615038592
0	41	137.992239984569	1.178320246557
0	43	138.143503382684	0.151263398115
0	46	152.50588706234	14.362383679656
0	48	154.296630652865	1.790743590525
0	51	163.718837674967	9.422207022102
0	54	165.422777531655	1.703939856688
0	56	167.459325153046	2.036547621391
0	58	171.401355600431	3.942030447385
0	60	173.129177431861	1.72782183143
0	62	175.495451897982	2.366274466121
0	64	177.799759172772	2.30430727479
0	67	181.233662031938	3.433902859166
0	69	181.874438239681	0.640776207743
0	77	193.182709199544	11.308270959863
0	79	199.156356971425	5.973647771881
0	82	207.831905307353	8.675548335928
0	84	212.996247874725	5.164342567372
0	89	218.215051542775	5.21880366805
0	92	218.779414423359	0.564362880584
0	97	229.79410153103	11.014687107671
0	101	244.95451583857	15.16041430754
0	106	251.285270109154	6.330754270584
0	110	265.002406568297	13.717136459143
0	112	265.701991814353	0.699585246056
0	115	274.872741751791	9.170749937438
0	117	276.258681099165	1.385939347374
0	119	277.548143912967	1.289462813802
0	122	292.092375080623	14.544231167656
0	124	294.570021730752	2.477646650129
0	126	303.053571027551	8.483549296799
0	128	303.564668553166	0.511097525615
0	130	304.697013651432	1.132345098266
0	132	306.754429320173	2.057415668741
0	134	306.976877640043	0.22244831987
0	137	311.623094097917	4.646216457874
0	143	327.257768325237	15.63467422732
0	145	335.789746266469	8.531977941232
0	148	342.646961232979	6.85721496651
0	150	343.75200517595	1.105043942971
0	152	348.248807902464	4.496802726514
0	159	380.000779116633	31.751971214169
0	163	390.329106585742	10.328327469109
0	167	400.839050803964	10.509944218222
0	170	405.406990526376	4.567939722412
0	172	417.4531499901	12.046159463724
0	175	429.610889241289	12.157739251189
0	178	435.518838454844	5.907949213555
0	182	444.900447306499	9.381608851655
0	184	445.118797823807	0.218350517308
0	186	453.813211632801	8.694413808994
0	190	460.613308150472	6.800096517671
0	192	469.931876656376	9.318568505904
0	194	473.603784577866	3.67190792149
0	197	479.199268670227	5.595484092361
0	201	493.662955405719	14.463686735492
0	204	501.215038710555	7.552083304836
0	208	509.101526615901	7.886487905346
0	211	516.250724328114	7.149197712213
0	214	522.37393949116	6.123215163046
0	216	522.382934049408	0.008994558248
0	218	523.03568111791	0.652747068502
0	220	524.478513266027	1.442832148117
0	225	531.118742510898	6.640229244871
0	227	532.375385648312	1.256643137414
0	230	536.040201926178	3.664816277866
0	232	537.79170591736	1.751503991182
0	234	538.54024440889	0.74853849153
0	237	540.478393010934	1.938148602044
0	239	540.928773059243	0.450380048309
0	241	542.267946048959	1.339172989716
0	247	551.317070077916	9.049124028957
0	249	553.570106674444	2.253036596528
0	253	560.329526635003	6.759419960559
0	258	576.663076927715	16.333550292712
0	262	580.172062684674	3.508985756959
0	265	585.983530928526	5.811468243852
0	270	591.455557147831	5.472026219305
0	272	595.720149335538	4.264592187707
0	274	600.66952665862	4.949377323082
0	279	612.841478812456	12.171952153836
0	282	619.758634145981	6.917155333525
0	285	628.103599745968	8.344965599987
0	287	630.885008362353	2.781408616385
0	292	637.999259524673	7.11425116232
0	294	638.778175766122	0.778916241449
0	296	640.044365163965	1.266189397843
0	299	648.09893709198	8.054571928015
0	301	651.39910363317	3.30016654119
0	303	657.198783745213	5.799680112043
0	310	673.326306626095	16.127522880882
0	314	677.668423060347	4.342116434252
0	317	679.804751182208	2.136328121861
0	319	683.157000920888	3.35224973868
0	321	693.361018098419	10.204017177531
0	324	699.72846379932	6.367445700901
0	326	702.584142605184	2.855678805864
0	329	708.585741596698	6.001598991514
0	332	714.0396397558	5.453898159102
0	336	717.260293430027	3.220653674227
0	339	735.319645762712	18.059352332685
0	341	747.666450711974	12.346804949262
0	343	747.669451540986	0.003000829012
0	345	751.044998877579	3.375547336593
0	349	760.478010102878	9.433011225299
0	352	779.784262701305	19.306252598427
0	355	783.376671947292	3.592409245987
0	360	795.275843502057	11.899171554765
0	363	806.330105887859	11.054262385802
0	368	829.249822310508	22.919716422649
0	370	838.400343648881	9.150521338373
0	373	841.75806208615	3.357718437269
0	375	845.969534777166	4.211472691016
0	377	850.31639170497	4.346856927804
0	379	853.015669755276	2.699278050306
0	381	855.511508661232	2.495838905956
0	384	858.307763057183	2.796254395951
0	390	879.175971927437	20.868208870254
0	393	888.099544993238	8.923573065801
0	395	889.388684476442	1.289139483204
0	398	894.966697334746	5.578012858304
0	400	895.62143204101	0.654734706264
0	402	899.568386570867	3.946954529857
0	405	902.465734499121	2.897347928254
0	409	908.679370394089	6.213635894968
0	411	910.577435666859	1.89806527277
0	417	922.91956599562	12.342130328761
0	420	928.453748346913	5.534182351293
0	424	958.098631171913	29.644882825
0	426	967.155406275474	9.056775103561
0	430	978.25747819423	11.102071918756
0	433	996.508948328786	18.251470134556
0	435	996.66272303796	0.153774709174
0	438	999.000702084659	2.337979046699
0	441	1004.833584637004	5.832882552345
0	443	1005.359936204851	0.526351567847
0	447	1014.855012704304	9.495076499453
0	450	1017.658404614357	2.803391910053
0	452	1022.213544161502	4.555139547145
0	456	1027.128570077838	4.915025916336
0	458	1028.401525744115	1.272955666277
0	460	1030.623313845228	2.221788101113
0	462	1031.072261999102	0.448948153874
0	464	1031.326877283458	0.254615284356
0	467	1031.662697465703	0.335820182245
0	469	1032.349980499099	0.687283033396
0	471	1032.411919470662	0.061938971563
0	474	1041.559342165427	9.147422694765
0	483	1061.691928095314	20.132585929887
0	485	1069.67441825558	7.982490160266
0	487	1074.700619325744	5.026201070164
0	491	1082.357891771792	7.657272446048
0	493	1084.888741144332	2.53084937254
0	497	1098.278349471167	13.389608326835
0	500	1105.952086960477	7.67373748931
0	502	1107.349137802745	1.397050842268
0	506	1116.038219889841	8.689082087096
0	510	1122.702646341072	6.664426451231
0	512	1123.275369604588	0.572723263516
0	515	1129.0690700933	5.793700488712
0	521	1150.013343491008	20.944273397708
0	524	1154.720459879188	4.70711638818
0	526	1155.753595528142	1.033135648954
0	528	1164.004555522435	8.250959994293
0	531	1169.361054138307	5.356498615872
0	535	1175.31377271435	5.952718576043
0	540	1177.831113893174	2.517341178824
0	542	1179.390568903391	1.559455010217
0	544	1182.809570698672	3.419001795281
0	546	1183.528568690985	0.718997992313
0	550	1194.355684822943	10.827116131958
0	553	1197.170478906408	2.814794083465
0	556	1200.163713649953	2.993234743545
0	558	1202.832477504408	2.668763854455
0	560	1203.868957510985	1.036480006577
0	563	1207.734133459639	3.865175948654
0	567	1212.125481307047	4.391347847408
0	569	1212.734986745246	0.609505438199
0	574	1224.862972567863	12.127985822617
0	577	1229.710584326916	4.847611759053
0	580	1241.193905449512	11.483321122596
0	582	1242.054847037904	0.860941588392
0	584	1244.501646153028	2.446799115124
0	586	1249.669752645615	5.168106492587
0	589	1260.166849196003	10.497096550388
0	593	1279.965637885846	19.798788689843
0	595	1280.893887862723	0.928249976877
0	597	1281.539154528638	0.645266665915
0	599	1282.267367735258	0.72821320662
0	604	1288.512403118836	6.245035383578
0	606	1288.61656933792	0.104166219084
0	610	1295.65153177753	7.03496243961
0	612	1299.228236553684	3.576704776154
0	614	1303.493754211955	4.265517658271
0	616	1308.656838444189	5.163084232234
0	618	1309.44078337558	0.783944931391
0	623	1312.998780250089	3.557996874509
0	627	1314.465185588203	1.466405338114
0	631	1319.42149755035	4.956311962147
0	638	1329.774250377028	10.352752826678
0	641	1345.495930935553	15.721680558525
0	643	1348.519449017003	3.02351808145
0	645	1349.52406000721	1.004610990207
0	647	1363.623832917426	14.099772910216
0	650	1367.877999410806	4.25416649338
0	652	1374.039668847825	6.161669437019
0	657	1384.952106678547	10.912437830722
0	659	1396.229471601429	11.277364922882
0	661	1398.857739014524	2.628267413095
0	664	1405.710473910517	6.852734895993
0	666	1407.798202205909	2.087728295392
0	668	1407.798673128091	0.000470922182
0	673	1408.637165069086	0.838491940995
0	675	1413.043417880313	4.406252811227
0	677	1416.217866493299	3.174448612986
0	680	1416.753703934321	0.535837441022
0	682	1417.333081336398	0.579377402077
0	685	1419.275360211639	1.942278875241
0	689	1422.939038522946	3.663678311307
0	691	1423.441322352123	0.502283829177
0	693	1426.154088792446	2.712766440323
0	697	1429.582471731167	3.428382938721
0	700	1429.763288021063	0.180816289896
0	705	1449.946695965018	20.183407943955
0	707	1458.472379383938	8.52568341892
0	709	1460.982162622156	2.509783238218
0	716	1473.186299434222	12.204136812066
0	718	1486.247682537216	13.061383102994
0	721	1493.550717906501	7.303035369285
0	724	1498.935071974018	5.384354067517
0	726	1502.982704348315	4.047632374297
0	728	1505.781775457516	2.799071109201
0	735	1528.893508804293	23.111733346777
0	738	1532.928050275327	4.034541471034
0	741	1537.351439966742	4.423389691415
0	743	1540.651957215896	3.300517249154
0	745	1545.428626603816	4.77666938792
0	748	1560.516542300613	15.087915696797
0	750	1560.708810975726	0.192268675113
0	752	1567.879317470204	7.170506494478
0	754	1568.534483162308	0.655165692104
0	757	1570.300429484111	1.765946321803
0	763	1581.905806617026	11.605377132915
0	765	1581.97753108241	0.071724465384
0	767	1582.19781798288	0.22028690047
0	770	1583.052098213318	0.854280230438
0	772	1584.426793500799	1.374695287481
0	776	1586.845172957757	2.418379456958
0	778	1587.401617849373	0.556444891616
0	780	1588.07151638759	0.669898538217
0	782	1589.191514046415	1.119997658825
0	790	1601.310229666236	12.118715619821
0	793	1605.783482859104	4.473253192868
0	799	1621.629014279438	15.845531420334
0	801	1624.693837097204	3.064822817766
0	806	1632.06244831145	7.368611214246
0	808	1635.681293172491	3.618844861041
0	810	1645.962297864626	10.281004692135
0	812	1645.980858122435	0.018560257809
0	815	1646.364343052634	0.383484930199
0	818	1661.08798849722	14.723645444586
0	820	1663.027354075487	1.939365578267
0	823	1674.394937424521	11.367583349034
0	825	1680.763292828624	6.368355404103
0	828	1681.547125369491	0.783832540867
0	831	1685.448335468355	3.901210098864
0	833	1685.747476123879	0.299140655524
0	837	1688.522719488463	2.775243364584
0	839	1692.692597240687	4.169877752224
0	844	1702.877220362282	10.184623121595
0	846	1705.849789419021	2.972569056739
0	848	1707.349170641138	1.499381222117
0	852	1715.584245232591	8.235074591453
0	856	1716.96488175825	1.380636525659
0	858	1719.330841515756	2.365959757506
0	861	1732.004671508666	12.67382999291
0	863	1732.236482189573	0.231810680907
0	865	1733.238710077338	1.002227887765
0	867	1734.948285314095	1.709575236757
0	872	1737.865969431998	2.917684117903
0	874	1740.026918140021	2.160948708023
0	878	1741.328694127871	1.30177598785
0	885	1753.662002124823	12.333307996952
0	888	1754.737392775354	1.075390650531
0	891	1758.127093982469	3.389701207115
0	896	1770.217759757389	12.09066577492
0	898	1774.866974840434	4.649215083045
0	900	1776.388219183636	1.521244343202
0	902	1779.896124338599	3.507905154963
0	907	1792.684433664974	12.788309326375
0	911	1796.918578361097	4.234144696123
0	915	1810.545734256043	13.627155894946
0	920	1832.834526475564	22.288792219521
0	924	1840.787726583148	7.953200107584
0	926	1847.473783705996	6.686057122848
0	928	1848.777116513351	1.303332807355
0	931	1849.102129642687	0.325013129336
0	935	1858.277760372363	9.175630729676
0	937	1859.522700861208	1.244940488845
0	942	1876.569939058099	17.047238196891
0	945	1880.856353015138	4.286413957039
0	947	1881.906956209936	1.050603194798
0	949	1888.01626459092	6.109308380984
0	951	1891.534295225624	3.518030634704
0	953	1895.225592540736	3.691297315112
0	956	1907.432098861921	12.206506321185
0	959	1912.66409560293	5.231996741009
0	964	1923.523656913296	10.859561310366
0	966	1931.972396972625	8.448740059329
0	968	1932.32576263044	0.353365657815
0	972	1946.439333248453	14.113570618013
0	975	1956.01226873471	9.572935486257
0	979	1959.945531131724	3.933262397014
0	983	1966.479983152291	6.534452020567
0	986	1969.485524256944	3.005541104653
0	988	1974.159773739685	4.674249482741
0	990	1974.917670016192	0.757896276507
0	994	1989.362663712961	14.444993696769
0	996	2008.239832217696	18.877168504735
0	1001	2013.444980803304	5.205148585608
0	1004	2022.265956952033	8.820976148729
0	1006	2025.504752984796	3.238796032763
0	1009	2030.060522979405	4.555769994609
0	1011	2032.595872370602	2.535349391197
0	1014	2035.959080156034	3.363207785432
0	1018	2037.359066776052	1.399986620018
0	1020	2038.953628935865	1.594562159813
0	1022	2039.739122746324	0.785493810459
0	1024	2040.195284762307	0.456162015983
0	1027	2051.424226023231	11.228941260924
0	1033	2062.041790326829	10.617564303598
0	1037	2071.028126806354	8.986336479525
0	1040	2077.901203831163	6.873077024809
0	1042	2079.786354951814	1.885151120651
0	1044	2081.362726635002	1.576371683188
0	1049	2091.51235205629	10.149625421288
0	1051	2093.709993829766	2.197641773476
0	1053	2093.948591387132	0.238597557366
0	1056	2101.525479204317	7.576887817185
0	1059	2114.268638496393	12.743159292076
0	1062	2121.319929825735	7.051291329342
0	1064	2123.2089093043	1.888979478565
0	1067	2129.697755566216	6.488846261916
0	1072	2136.291264542321	6.593508976105
0	1074	2144.586152720479	8.294888178158
0	1076	2148.731234674441	4.145081953962
0	1079	2160.557827684547	11.826593010106
0	1081	2160.80880239343	0.250974708883
0	1083	2161.057718543955	0.248916150525
0	1085	2161.168442449146	0.110723905191
0	1089	2164.270229644941	3.101787195795
0	1091	2164.316348248874	0.046118603933
0	1096	2174.399868237592	10.083519988718
0	1101	2187.859039982914	13.459171745322
0	1104	2205.100155723722	17.241115740808
0	1107	2215.780138662004	10.679982938282
0	1110	2222.737070722044	6.95693206004
0	1114	2228.155331812881	5.418261090837
0	1116	2229.533134358276	1.377802545395
0	1119	2237.015296334611	7.482161976335
0	1123	2241.464112508715	4.448816174104
0	1128	2267.653677778506	26.189565269791
0	1130	2269.966926962399	2.313249183893
0	1132	2270.48077980856	0.513852846161
0	1134	2274.852434477408	4.371654668848
0	1137	2280.185258618621	5.332824141213
0	1139	2288.977541553923	8.792282935302
0	1141	2293.771206148422	4.793664594499
0	1144	2298.049685221819	4.278479073397
0	1146	2304.517169287032	6.467484065213
0	1150	2308.999750694252	4.48258140722
0	1153	2316.731938535735	7.732187841483
0	1155	2318.113675589846	1.381737054111
0	1158	2326.250319945577	8.136644355731
0	1162	2339.709238203936	13.458918258359
0	1167	2350.026088389625	10.316850185689
0	1171	2358.913739608411	8.887651218786
0	1173	2370.148462421347	11.234722812936
0	1175	2371.646110743359	1.497648322012
0	1177	2379.417548650967	7.771437907608
0	1184	2419.80253737965	40.384988728683
0	1187	2422.836264865067	3.033727485417
0	1189	2428.132525375644	5.296260510577
0	1192	2432.435106487247	4.302581111603
0	1195	2436.774367558235	4.339261070988
0	1198	2440.55967148592	3.785303927685
0	1201	2443.676328751094	3.116657265174
0	1204	2454.001952184841	10.325623433747
0	1206	2456.027847357147	2.025895172306
0	1208	2458.558037842805	2.530190485658
0	1210	2460.852203822473	2.294165979668
0	1212	2461.717363066586	0.865159244113
0	1215	2471.409122490122	9.691759423536
0	1219	2481.069508198288	9.660385708166
0	1221	2481.191551413956	0.122043215668
0	1224	2484.975227394265	3.783675980309
0	1228	2492.492892134775	7.51766474051
0	1231	2494.011103869622	1.518211734847
0	1233	2495.563325358264	1.552221488642
0	1235	2503.978472211842	8.415146853578
0	1238	2507.246200825733	3.267728613891
0	1243	2516.094290513788	8.848089688055
0	1245	2517.628011054949	1.533720541161
0	1253	2536.869361946661	19.241350891712
0	1255	2537.442824054199	0.573462107538
0	1257	2541.249804913999	3.8069808598
0	1263	2562.715656639911	21.465851725912
0	1265	2578.200528281387	15.484871641476
0	1267	2582.011751633635	3.811223352248
0	1269	2585.262142724498	3.250391090863
0	1271	2594.937079604895	9.674936880397
0	1273	2604.345520714278	9.408441109383
0	1276	2609.860102720727	5.514582006449
0	1278	2611.787488318751	1.927385598024
0	1281	2617.883344557208	6.095856238457
0	1283	2622.799750233071	4.916405675863
0	1286	2626.310253137702	3.510502904631
0	1292	2636.710848298754	10.400595161052
0	1296	2644.712945210503	8.002096911749
0	1298	2659.08819852926	14.375253318757
0	1300	2661.342366895933	2.254168366673
0	1302	2662.194938925324	0.852572029391
0	1304	2665.269291798609	3.074352873285
0	1306	2668.140870365469	2.87157856686
0	1308	2673.363626034327	5.222755668858
0	1313	2678.679600405452	5.315974371125
0	1318	2685.850729555188	7.171129149736
0	1323	2696.216891143732	10.366161588544
0	1325	2699.177665352937	2.960774209205
0	1327	2699.617272546452	0.439607193515
0	1329	2708.195844645089	8.578572098637
0	1331	2710.420533842497	2.224689197408
0	1334	2717.914540140142	7.494006297645
0	1336	2719.04967397827	1.135133838128
0	1337	2719.21135960173	0.16168562346
0	1341	2720.380548938067	1.169189336337
0	1342	2725.09268139785	4.712132459783
0	1346	2728.328437756666	3.235756358816
0	1353	2735.214561969073	6.886124212407
0	1357	2737.926089123001	2.711527153928
0	1361	2740.983465037772	3.057375914771
0	1362	2741.219156100539	0.235691062767
0	1366	2743.751691088107	2.532534987568
0	1370	2747.189559257266	3.437868169159
0	1374	2752.03124659607	4.841687338804
0	1385	2757.379424807909	5.348178211839
0	1389	2766.556286523369	9.17686171546
0	1391	2769.631259076171	3.074972552802
0	1399	2785.590097012518	15.958837936347
0	1401	2791.653483075456	6.063386062938
0	1408	2810.121270103908	18.467787028452
0	1410	2813.197630733644	3.076360629736
0	1412	2813.62505601847	0.427425284826
0	1415	2820.407666289258	6.782610270788
0	1417	2821.512461264922	1.104794975664
0	1420	2839.561335751914	18.048874486992
0	1424	2842.251641720052	2.690305968138
0	1426	2843.010080305259	0.758438585207
0	1429	2849.121940957953	6.111860652694
0	1431	2853.7456516957	4.623710737747
0	1433	2855.788570615233	2.042918919533
0	1438	2867.628828527459	11.840257912226
0	1440	2868.436758801709	0.80793027425
0	1442	2869.640292448462	1.203533646753
0	1444	2870.133412814643	0.493120366181
0	1448	2873.287241100873	3.15382828623
0	1450	2874.570398318921	1.283157218048
0	1454	2877.867610407369	3.297212088448
0	1457	2880.286894302443	2.419283895074
0	1460	2881.35676889991	1.069874597467
0	1463	2885.869284482745	4.512515582835
0	1467	2892.469365305836	6.600080823091
0	1474	2906.287399271776	13.81803396594
0	1476	2908.982231212708	2.694831940932
0	1478	2912.17007982232	3.187848609612
0	1480	2921.892869462409	9.722789640089
0	1482	2926.053684552988	4.160815090579
0	1484	2929.729588025759	3.675903472771
0	1486	2931.374483572997	1.644895547238
0	1490	2933.063593538284	1.689109965287
0	1495	2943.352722646554	10.28912910827
0	1497	2944.140805052098	0.788082405544
0	1503	2969.115726831132	24.974921779034
0	1505	2975.240893493817	6.125166662685
0	1509	2983.763377174893	8.522483681076
0	1511	2989.0696237931	5.306246618207
0	1513	2991.761266108687	2.691642315587
0	1515	2993.989086380514	2.227820271827
0	1518	2999.052207471592	5.063121091078
0	1522	3009.247677967716	10.195470496124
0	1527	3017.016520908331	7.768842940615
0	1531	3033.351023993421	16.33450308509
0	1534	3040.728373831393	7.377349837972
0	1536	3048.011923559487	7.283549728094
0	1538	3050.550065495866	2.538141936379
0	1540	3052.808649968898	2.258584473032
0	1544	3065.701741237105	12.893091268207
0	1546	3066.813000306734	1.111259069629
0	1548	3070.789921455552	3.976921148818
0	1550	3072.744448543335	1.954527087783
0	1552	3077.531278761298	4.786830217963
0	1558	3095.232915721068	17.70163695977
0	1560	3105.467325632793	10.234409911725
0	1563	3111.638349543921	6.171023911128
0	1567	3117.191983725635	5.553634181714
0	1569	3119.902640459081	2.710656733446
0	1576	3136.151081960836	16.248441501755
0	1578	3140.440334684992	4.289252724156
0	1581	3145.957086844291	5.516752159299
0	1583	3146.189252443891	0.2321655996
0	1585	3148.236879110581	2.04762666669
0	1588	3152.493972736482	4.257093625901
0	1590	3154.745157886077	2.251185149595
0	1593	3157.888872678089	3.143714792012
0	1595	3159.835930680491	1.947058002402
0	1597	3162.612678524908	2.776747844417
0	1599	3166.315908825014	3.703230300106
0	1602	3169.691707073343	3.375798248329
0	1606	3175.740726903149	6.049019829806
0	1609	3185.071461570402	9.330734667253
0	1612	3185.937083514025	0.865621943623
0	1619	3194.194715139951	8.257631625926
0	1622	3204.249570976081	10.05485583613
0	1625	3206.982399674629	2.732828698548
0	1628	3218.640974638166	11.658574963537
0	1630	3218.727624861516	0.08665022335
0	1632	3222.545389178557	3.817764317041
0	1634	3225.561519668802	3.016130490245
0	1636	3226.310566216895	0.749046548093
0	1639	3228.908055803931	2.597489587036
0	1641	3230.733093089186	1.825037285255
0	1645	3237.683466392492	6.950373303306
0	1647	3240.223064052191	2.539597659699
0	1650	3243.500718041598	3.277653989407
0	1653	3249.046948594061	5.546230552463
0	1656	3257.150462471533	8.103513877472
0	1658	3257.590485152593	0.44002268106
0	1662	3262.369987470745	4.779502318152
0	1666	3270.894816244709	8.524828773964
0	1668	3272.08684325874	1.192027014031
0	1672	3286.995709030158	14.908865771418
0	1674	3290.727066558293	3.731357528135
0	1680	3299.57211893052	8.845052372227
0	1684	3309.274010494383	9.701891563863
0	1689	3324.212605063731	14.938594569348
0	1692	3330.240248088536	6.027643024805
0	1696	3345.628967129644	15.388719041108
0	1699	3355.23634650436	9.607379374716
0	1702	3359.224672410726	3.988325906366
0	1704	3370.155123607591	10.930451196865
0	1706	3371.549612074381	1.39448846679
0	1708	3375.556032136756	4.006420062375
0	1711	3383.321840448072	7.765808311316
0	1713	3385.006866171093	1.685025723021
0	1715	3385.72120667709	0.714340505997
0	1717	3386.639037043083	0.917830365993
0	1720	3388.649923144131	2.010886101048
0	1726	3403.465740731329	14.815817587198
0	1728	3410.925652320144	7.459911588815
0	1730	3417.820782218568	6.895129898424
0	1732	3418.136130405791	0.315348187223
0	1737	3425.753267749656	7.617137343865
0	1742	3439.60025382202	13.846986072364
0	1745	3444.007885167589	4.407631345569
0	1747	3448.588686584623	4.580801417034
0	1749	3449.973906274956	1.385219690333
0	1752	3460.064223847194	10.090317572238
0	1759	3490.514358343172	30.450134495978
0	1763	3512.232091983834	21.717733640662
0	1765	3518.208249241795	5.976157257961
0	1767	3518.990311093519	0.782061851724
0	1770	3523.407182216558	4.416871123039
0	1773	3532.0250127986	8.617830582042
0	1775	3532.324436136292	0.299423337692
0	1778	3540.55872728753	8.234291151238
0	1781	3542.936837888819	2.378110601289
0	1783	3548.666432234412	5.729594345593
0	1785	3549.821748860764	1.155316626352
0	1788	3551.590338483584	1.76858962282
0	1792	3559.176432984443	7.586094500859
0	1795	3564.402825757034	5.226392772591
0	1798	3567.804113122429	3.401287365395
0	1800	3569.873790852709	2.06967773028
0	1803	3570.183731313278	0.309940460569
0	1805	3570.529030466992	0.345299153714
0	1808	3572.444814593086	1.915784126094
0	1811	3576.605387680967	4.160573087881
0	1815	3585.137058675989	8.531670995022
0	1817	3587.782921153683	2.645862477694
0	1821	3590.452975202252	2.670054048569
0	1827	3603.788373629621	13.335398427369
0	1830	3615.715389130116	11.927015500495
0	1832	3624.475189687742	8.759800557626
0	1834	3625.954892853919	1.479703166177
0	1836	3630.292209222632	4.337316368713
0	1838	3631.170827991126	0.878618768494
0	1841	3637.634433369007	6.463605377881
0	1843	3640.534919888722	2.900486519715
0	1846	3642.628231993712	2.09331210499
0	1848	3643.593076337073	0.964844343361
0	1850	3643.785166649933	0.19209031286
0	1852	3646.18940094818	2.404234298247
0	1856	3649.133917195769	2.944516247589
0	1857	3649.683762776359	0.54984558059
0	1868	3666.2493674137	16.565604637341
0	1872	3667.552962107696	1.303594693996
0	1874	3669.018891368254	1.465929260558
0	1876	3670.066730536185	1.047839167931
0	1878	3670.462665685714	0.395935149529
0	1880	3678.872024761435	8.409359075721
0	1883	3681.35033301798	2.478308256545
0	1885	3685.079412167965	3.729079149985
0	1890	3692.800973719516	7.721561551551
0	1895	3698.822200470633	6.021226751117
0	1897	3701.188304258493	2.36610378786
0	1900	3704.799862077306	3.611557818813
0	1903	3715.549977833583	10.750115756277
0	1908	3720.139336356659	4.589358523076
0	1911	3725.594202640871	5.454866284212
0	1915	3730.463638573066	4.869435932195
0	1917	3732.412144795698	1.948506222632
0	1924	3747.324828887299	14.912684091601
0	1926	3749.470169700922	2.145340813623
0	1928	3755.269995668935	5.799825968013
0	1931	3758.976282126276	3.706286457341
0	1933	3759.670271015694	0.693988889418
0	1935	3767.997219013192	8.326947997498
0	1938	3770.728520777503	2.731301764311
0	1941	3774.554348513959	3.825827736456
0	1946	3787.433154203257	12.878805689298
0	1950	3798.256324472039	10.823170268782
0	1952	3802.899780503399	4.64345603136
0	1954	3803.894745100001	0.994964596602
0	1959	3812.658210957346	8.763465857345
0	1961	3821.640615056843	8.982404099497
0	1963	3828.240091084551	6.599476027708
0	1965	3836.56385631082	8.323765226269
0	1967	3838.931341490616	2.367485179796
0	1969	3840.333501043258	1.402159552642
0	1973	3856.676167006105	16.342665962847
0	1975	3860.379740127954	3.703573121849
0	1978	3862.279358767797	1.899618639843
0	1981	3867.399345906881	5.119987139084
0	1983	3867.417485976397	0.018140069516
0	1987	3870.313100378401	2.895614402004
0	1995	3885.868060078385	15.554959699984
0	1998	3897.329982636114	11.461922557729
0	2000	3898.058101681499	0.728119045385
0	2003	3899.755719217054	1.697617535555
0	2005	3900.139411676362	0.383692459308
0	2008	3903.700103364527	3.560691688165
0	2010	3904.505839816622	0.805736452095
0	2012	3907.502008767941	2.996168951319
0	2017	3913.655877326452	6.153868558511
0	2022	3922.574483027076	8.918605700624
0	2024	3928.140861650047	5.566378622971
0	2027	3938.825341774813	10.684480124766
0	2029	3940.346248035214	1.520906260401
0	2031	3942.115323453087	1.769075417873
0	2035	3945.453158260101	3.337834807014
0	2038	3949.909242603649	4.456084343548
0	2040	3952.449503377762	2.540260774113
0	2043	3955.296393425221	2.846890047459
0	2045	3956.135907977755	0.839514552534
0	2051	3969.341553283814	13.205645306059
0	2053	3972.542401419791	3.200848135977
0	2056	3978.159830489815	5.617429070024
0	2060	3983.60186755768	5.442037067865
0	2062	3987.954450918225	4.352583360545
0	2065	3993.923995185248	5.969544267023
0	2067	3998.75331800392	4.829322818672
0	2069	4001.750088727114	2.996770723194
0	2071	4004.067758371154	2.31766964404
0	2077	4022.215042982205	18.147284611051
0	2080	4025.127495216621	2.912452234416
0	2082	4026.891539553586	1.764044336965
0	2088	4037.905668205047	11.014128651461
0	2090	4041.65604653196	3.750378326913
0	2092	4042.885225484674	1.229178952714
0	2094	4046.485586658841	3.600361174167
0	2100	4052.379759823401	5.89417316456
0	2104	4058.295783209079	5.916023385678
0	2106	4062.429872709669	4.13408950059
0	2109	4066.806782283868	4.376909574199
0	2112	4067.215068990251	0.408286706383
0	2114	4071.278158549353	4.063089559102
0	2116	4072.750381021905	1.472222472552
0	2119	4085.806553817491	13.056172795586
0	2122	4089.927563255157	4.121009437666
0	2126	4094.29116525498	4.363601999823
0	2128	4096.673310171833	2.382144916853
0	2132	4104.037746054292	7.364435882459
0	2135	4112.65022116178	8.612475107488
0	2137	4113.242393236827	0.592172075047
0	2142	4120.467305714766	7.224912477939
0	2144	4121.747615602379	1.280309887613
0	2146	4125.751191163	4.003575560621
0	2150	4134.645980198152	8.894789035152
0	2152	4135.023341605869	0.377361407717
0	2154	4136.505859211905	1.482517606036
0	2157	4142.69272905633	6.186869844425
0	2163	4153.229856903943	10.537127847613
0	2165	4157.557706998831	4.327850094888
0	2169	4164.575907782886	7.018200784055
0	2173	4170.041294393579	5.465386610693
0	2175	4170.901220501525	0.859926107946
0	2178	4175.990949074006	5.089728572481
0	2180	4178.939048234532	2.948099160526
0	2182	4181.574912351287	2.635864116755
0	2185	4189.361245420486	7.786333069199
0	2188	4191.69276380033	2.331518379844
0	2191	4204.716251749726	13.023487949396
0	2193	4204.753069311857	0.036817562131
0	2195	4205.296757146731	0.543687834874
0	2199	4211.649927545348	6.353170398617
0	2201	4213.404950879737	1.755023334389
0	2204	4218.16945970375	4.764508824013
0	2208	4225.896023694957	7.726563991207
0	2211	4228.611249505879	2.715225810922
0	2213	4229.670958640656	1.059709134777
0	2215	4230.013639119251	0.342680478595
0	2218	4231.60116241319	1.587523293939
0	2220	4231.749233575366	0.148071162176
0	2224	4239.512848106563	7.763614531197
0	2226	4242.540736768208	3.027888661645
0	2229	4247.369526087312	4.828789319104
0	2233	4252.202726610801	4.833200523489
0	2235	4257.7860761418	5.583349530999
0	2239	4259.533855103985	1.747778962185
0	2246	4277.2339724997	17.700117395715
0	2250	4291.507781044618	14.273808544918
0	2252	4300.701826896276	9.194045851658
0	2255	4306.726188386733	6.024361490457
0	2259	4318.780870816674	12.054682429941
0	2262	4339.225136353411	20.444265536737
0	2264	4344.085472081251	4.86033572784
0	2267	4344.368263603393	0.282791522142
0	2269	4345.323787798853	0.95552419546
0	2271	4351.723745166934	6.399957368081
0	2273	4358.306495434531	6.582750267597
0	2275	4359.721026858967	1.414531424436
0	2277	4361.495408256907	1.77438139794
0	2279	4362.217436102434	0.722027845527
0	2285	4368.348721123562	6.131285021128
0	2288	4370.926992752299	2.578271628737
0	2291	4384.467863394305	13.540870642006
0	2293	4385.72883681405	1.260973419745
0	2298	4388.510770305747	2.781933491697
0	2300	4388.651819760592	0.141049454845
0	2303	4390.919633068098	2.267813307506
0	2306	4395.842103564834	4.922470496736
0	2308	4396.916416243705	1.074312678871
0	2312	4407.00302783623	10.086611592525
0	2315	4408.802167109131	1.799139272901
0	2319	4413.770098134131	4.967931025
0	2321	4416.083104110774	2.313005976643
0	2324	4417.720543256855	1.637439146081
0	2327	4422.860885110461	5.140341853606
0	2329	4424.27004596248	1.409160852019
0	2331	4425.594847697236	1.324801734756
0	2337	4430.200287999338	4.605440302102
0	2345	4452.780881429151	22.580593429813
0	2347	4454.757463541805	1.976582112654
0	2351	4469.959825804853	15.202362263048
0	2354	4480.29612154718	10.336295742327
0	2356	4482.127092886607	1.830971339427
0	2359	4483.612775871425	1.485682984818
0	2362	4500.64217824	17.029402368575
0	2365	4502.643706772503	2.001528532503
0	2368	4522.753608580027	20.109901807524
0	2371	4528.250528697053	5.496920117026
0	2373	4529.19068160181	0.940152904757
0	2375	4533.607441321649	4.416759719839
0	2377	4534.137575265558	0.530133943909
0	2381	4537.203561911906	3.065986646348
0	2384	4542.690829493406	5.4872675815
0	2387	4546.938541963611	4.247712470205
0	2394	4578.145124291894	31.206582328283
0	2398	4586.811111995078	8.665987703184
0	2400	4587.283461741338	0.47234974626
0	2402	4602.245340267588	14.96187852625
0	2404	4604.140207754978	1.89486748739
0	2406	4607.613859660872	3.473651905894
0	2409	4609.996422120005	2.382562459133
0	2412	4614.456175527646	4.459753407641
0	2414	4614.667477072438	0.211301544792
0	2417	4619.794145319509	5.126668247071
0	2421	4630.13747720289	10.343331883381
0	2425	4635.090992742311	4.953515539421
0	2428	4639.813281075186	4.722288332875
0	2430	4640.800427368883	0.987146293697
0	2436	4652.059861884322	11.259434515439
0	2438	4652.635761007112	0.57589912279
0	2441	4666.704380721367	14.068619714255
0	2444	4677.488602649075	10.784221927708
0	2447	4679.959635656425	2.47103300735
0	2451	4687.95403162609	7.994395969665
0	2453	4688.55901386785	0.60498224176
0	2456	4691.732387023806	3.173373155956
0	2458	4694.342076117365	2.609689093559
0	2460	4695.06526209615	0.723185978785
0	2462	4697.617318054567	2.552055958417
0	2468	4704.449744245353	6.832426190786
0	2471	4709.203871730486	4.754127485133
0	2473	4712.661302981619	3.457431251133
0	2476	4713.315832824341	0.654529842722
0	2479	4717.629569303311	4.31373647897
0	2483	4725.533631040163	7.904061736852
0	2486	4734.205703732803	8.67207269264
0	2488	4738.311917933816	4.106214201013
0	2491	4739.837548958343	1.525631024527
0	2493	4743.617675042792	3.780126084449
0	2495	4747.14558099145	3.527905948658
0	2498	4750.592498033183	3.446917041733
0	2501	4758.267880913346	7.675382880163
0	2503	4758.283829241654	0.015948328308
0	2506	4766.949070762713	8.665241521059
0	2510	4775.164294856954	8.215224094241
0	2515	4786.618433419176	11.454138562222
0	2518	4789.113759857569	2.495326438393
0	2522	4802.926494016131	13.812734158562
0	2525	4809.908010274129	6.981516257998
0	2527	4810.374246422267	0.466236148138
0	2529	4814.031430579257	3.65718415699
0	2533	4822.953141855699	8.921711276442
0	2535	4823.978459817189	1.02531796149
0	2537	4826.518133467341	2.539673650152
0	2540	4844.520950691481	18.00281722414
0	2544	4846.721190213693	2.200239522212
0	2546	4851.622037877815	4.900847664122
0	2552	4861.552505410013	9.930467532198
0	2554	4864.609011637509	3.056506227496
0	2556	4865.788326939683	1.179315302174
0	2561	4883.456345423157	17.668018483474
0	2563	4884.742217241438	1.285871818281
0	2565	4885.804230225772	1.062012984334
0	2568	4890.580430467601	4.776200241829
0	2571	4894.863446356866	4.283015889265
0	2576	4903.468022608024	8.604576251158
0	2578	4910.390045127254	6.92202251923
0	2580	4913.19854300922	2.808497881966
0	2582	4914.539487881774	1.340944872554
0	2584	4918.330786296496	3.791298414722
0	2588	4925.107932590365	6.777146293869
0	2593	4953.572829492537	28.464896902172
0	2595	4955.640743802128	2.067914309591
0	2597	4958.449634181047	2.808890378919
0	2600	4970.617833252515	12.168199071468
0	2604	4979.574161033964	8.956327781449
0	2607	4983.259958977916	3.685797943952
0	2609	4983.775522624022	0.515563646106
0	2613	4990.111632330866	6.336109706844
0	2616	5000.633700929804	10.522068598938
0	2619	5005.9775824051	5.343881475296
0	2621	5008.412365340974	2.434782935874
0	2623	5008.54712862718	0.134763286206
0	2625	5008.836845918197	0.289717291017
0	2630	5016.725503535417	7.88865761722
0	2634	5024.879929713963	8.154426178546
0	2636	5028.265090027401	3.385160313438
0	2642	5061.031860044257	32.766770016856
0	2644	5062.902777017089	1.870916972832
0	2647	5064.852052594744	1.949275577655
0	2649	5065.085011253752	0.232958659008
0	2651	5071.157846294612	6.07283504086
0	2654	5079.45218325867	8.294336964058
0	2660	5085.205926641442	5.753743382772
0	2662	5088.361456274921	3.155529633479
0	2665	5092.056910798612	3.695454523691
0	2667	5095.374295553922	3.31738475531
0	2670	5098.06900698173	2.694711427808
0	2677	5127.198936859764	29.129929878034
0	2679	5133.056472232861	5.857535373097
0	2681	5133.089247206442	0.032774973581
0	2684	5135.377789095003	2.288541888561
0	2686	5141.734305805444	6.356516710441
0	2688	5155.42624315659	13.691937351146
0	2690	5156.697272312586	1.271029155996
0	2694	5167.383363503254	10.686091190668
0	2696	5174.735455868885	7.352092365631
0	2701	5181.257175423929	6.521719555044
0	2704	5190.927667339897	9.670491915968
0	2707	5197.858248191488	6.930580851591
0	2709	5203.050615657239	5.192367465751
0	2713	5211.226623729454	8.176008072215
0	2718	5223.04198449587	11.815360766416
0	2720	5226.192662298925	3.150677803055
0	2722	5227.600462098353	1.407799799428
0	2724	5230.74777094766	3.147308849307
0	2726	5241.240521403701	10.492750456041
0	2728	5243.367628813218	2.127107409517
0	2734	5251.798786083263	8.431157270045
0	2736	5257.346630557104	5.547844473841
0	2738	5259.241655016284	1.89502445918
0	2740	5265.590868481348	6.349213465064
0	2742	5271.115370256008	5.52450177466
0	2744	5272.783528571489	1.668158315481
0	2748	5287.099867621407	14.316339049918
0	2753	5294.662691370536	7.562823749129
0	2756	5299.987193651849	5.324502281313
0	2759	5308.035544434517	8.048350782668
0	2763	5317.486476340692	9.450931906175
0	2766	5321.265413363721	3.778937023029
0	2769	5334.354066969741	13.08865360602
0	2772	5338.884420768868	4.530353799127
0	2775	5340.380460098166	1.496039329298
0	2777	5347.523734779146	7.14327468098
0	2783	5366.22045738224	18.696722603094
0	2786	5381.253793997699	15.033336615459
0	2789	5390.786709924759	9.53291592706
0	2792	5394.439783868911	3.653073944152
0	2796	5411.524517798276	17.084733929365
0	2798	5412.772158232886	1.24764043461
0	2803	5428.763336226564	15.991177993678
0	2806	5435.967082177058	7.203745950494
0	2808	5437.248418407937	1.281336230879
0	2810	5438.442659426498	1.194241018561
0	2812	5442.463772781069	4.021113354571
0	2818	5452.610632053895	10.146859272826
0	2820	5463.036019136425	10.42538708253
0	2823	5469.265628549233	6.229609412808
0	2825	5474.534614588371	5.268986039138
0	2827	5474.6211372457	0.086522657329
0	2829	5477.43961995918	2.81848271348
0	2831	5479.057058352774	1.617438393594
0	2836	5489.003632396425	9.946574043651
0	2838	5489.962602420951	0.958970024526
0	2841	5498.577596989833	8.614994568882
0	2844	5507.3158690852	8.738272095367
0	2846	5508.64636847925	1.33049939405
0	2848	5513.308004854029	4.661636374779
0	2851	5515.785747815776	2.477742961747
0	2855	5517.903599800251	2.117851984475
0	2857	5533.485691932875	15.582092132624
0	2860	5535.153851251899	1.668159319024
0	2862	5537.894584534406	2.740733282507
0	2866	5547.773434736273	9.878850201867
0	2873	5576.502552300286	28.729117564013
0	2878	5582.487521485059	5.984969184773
0	2881	5586.784696101351	4.297174616292
0	2884	5595.358996599554	8.574300498203
0	2887	5613.976975581503	18.617978981949
0	2889	5616.168895465837	2.191919884334
0	2891	5619.78018829341	3.611292827573
0	2894	5627.064419156975	7.284230863565
0	2897	5636.835476268889	9.771057111914
0	2899	5637.295721766741	0.460245497852
0	2903	5642.906272799715	5.610551032974
0	2905	5648.475647082027	5.569374282312
0	2907	5649.697590121882	1.221943039855
0	2909	5654.416686763419	4.719096641537
0	2912	5657.754782952399	3.33809618898
0	2914	5658.4949982598	0.740215307401
0	2916	5658.897316009159	0.402317749359
0	2919	5663.673836449727	4.776520440568
0	2922	5668.636325604997	4.96248915527
0	2924	5671.033084788187	2.39675918319
0	2933	5698.4714971145	27.438412326313
0	2937	5722.296814969281	23.825317854781
0	2939	5725.620594617825	3.323779648544
0	2942	5731.028006135229	5.407411517404
0	2946	5740.248590131644	9.220583996415
0	2949	5752.868310037253	12.619719905609
0	2952	5762.073216111179	9.204906073926
0	2954	5762.103706873934	0.030490762755
0	2956	5762.840291188278	0.736584314344
0	2960	5779.313400759431	16.473109571153
0	2962	5781.202392485084	1.888991725653
0	2965	5790.891167582697	9.688775097613
0	2969	5792.432169814187	1.54100223149
0	2971	5793.297916327604	0.865746513417
0	2973	5795.612128499561	2.314212171957
0	2976	5799.219181434811	3.60705293525
0	2978	5799.238300936038	0.019119501227
0	2980	5803.160960187703	3.922659251665
0	2982	5804.70814263022	1.547182442517
0	2987	5820.319262023062	15.611119392842
0	2990	5823.831291963487	3.512029940425
0	2994	5834.618514233591	10.787222270104
0	3000	5841.961275010641	7.34276077705
0	3003	5851.604401805343	9.643126794702
0	3005	5854.480410957226	2.876009151883
0	3008	5862.577540685851	8.097129728625
0	3011	5877.60557948316	15.028038797309
0	3013	5879.708440783871	2.102861300711
0	3015	5880.158150438856	0.449709654985
0	3017	5881.789378306888	1.631227868032
0	3020	5888.68775569044	6.898377383552
0	3022	5889.742563965691	1.054808275251
0	3028	5901.566027668537	11.823463702846
0	3031	5909.701514869213	8.135487200676
0	3036	5918.557735919187	8.856221049974
0	3039	5922.266500956157	3.70876503697
0	3042	5928.630261007537	6.36376005138
0	3044	5931.251517168058	2.621256160521
0	3047	5933.972970396355	2.721453228297
0	3049	5935.930930910308	1.957960513953
0	3053	5940.192803911534	4.261873001226
0	3056	5957.908526138413	17.715722226879
0	3058	5961.012352563134	3.103826424721
0	3061	5967.429159260513	6.416806697379
0	3063	5979.945080589583	12.51592132907
0	3066	5984.687434845213	4.74235425563
0	3069	5987.129596656994	2.442161811781
0	3072	5994.373876695055	7.244280038061
0	3074	6002.389979606188	8.016102911133
0	3079	6008.882505824777	6.492526218589
0	3082	6010.430207013871	1.547701189094
0	3084	6012.211826609303	1.781619595432
0	3086	6012.6402467246	0.428420115297
0	3089	6016.106749917834	3.466503193234
0	3093	6020.189831006752	4.083081088918
0	3095	6020.53933834154	0.349507334788
0	3097	6023.668755966839	3.129417625299
0	3100	6036.928735371661	13.259979404822
0	3106	6054.750290728542	17.821555356881
0	3108	6055.312067789848	0.561777061306
0	3112	6077.249686173235	21.937618383387
0	3115	6080.356556132076	3.106869958841
0	3120	6084.013665530123	3.657109398047
0	3123	6091.399426538209	7.385761008086
0	3125	6093.877334930101	2.477908391892
0	3130	6114.102482866312	20.225147936211
0	3132	6120.423081036474	6.320598170162
0	3134	6123.402101866825	2.979020830351
0	3137	6125.142927891705	1.74082602488
0	3141	6132.640315698971	7.497387807266
0	3144	6138.296749643365	5.656433944394
0	3146	6139.072539533107	0.775789889742
0	3148	6141.13829557708	2.065756043973
0	3150	6144.652532765358	3.514237188278
0	3152	6145.577776168957	0.925243403599
0	3156	6155.121257966752	9.543481797795
0	3158	6155.156405867395	0.035147900643
0	3162	6161.497005310352	6.340599442957
0	3164	6162.405091205163	0.908085894811
0	3172	6185.194012225647	22.788921020484
0	3174	6186.502804311688	1.308792086041
0	3176	6187.4866697418	0.983865430112
0	3180	6192.795289692086	5.308619950286
0	3182	6201.067570101127	8.272280409041
0	3185	6208.138852249614	7.071282148487
0	3188	6213.181971016627	5.043118767013
0	3190	6214.933272265989	1.751301249362
0	3192	6220.616171467109	5.68289920112
0	3194	6221.433180577177	0.817009110068
0	3197	6226.94997511546	5.516794538283
0	3199	6228.785087996277	1.835112880817
0	3204	6238.210598014761	9.425510018484
0	3208	6250.525579310584	12.314981295823
0	3210	6251.001646884813	0.476067574229
0	3213	6263.881580663304	12.879933778491
0	3219	6273.498713063943	9.617132400639
0	3221	6276.477847555858	2.979134491915
0	3224	6291.482296111089	15.004448555231
0	3228	6303.560757656971	12.078461545882
0	3230	6305.054758960278	1.494001303307
0	3232	6305.882686350863	0.827927390585
0	3237	6321.306383590075	15.423697239212
0	3239	6336.787833036999	15.481449446924
0	3241	6337.801162220351	1.013329183352
0	3243	6339.658943601388	1.857781381037
0	3245	6341.043032036052	1.384088434664
0	3247	6343.60201661467	2.558984578618
0	3249	6343.9598698366	0.35785322193
0	3254	6363.435839924259	19.475970087659
0	3256	6365.993554275066	2.557714350807
0	3259	6372.060662520257	6.067108245191
0	3262	6372.480301901139	0.419639380882
0	3264	6375.232124594169	2.75182269303
0	3268	6379.887973072762	4.655848478593
0	3270	6380.780108825938	0.892135753176
0	3272	6382.228389856461	1.448281030523
0	3277	6390.798718894448	8.570329037987
0	3281	6397.074436008104	6.275717113656
0	3288	6419.308876105554	22.23444009745
0	3292	6424.951664305581	5.642788200027
0	3294	6427.399613012959	2.447948707378
0	3296	6432.626427904381	5.226814891422
0	3299	6438.015273833881	5.3888459295
0	3301	6438.469510792758	0.454236958877
0	3304	6446.31423195169	7.844721158932
0	3308	6473.209937736834	26.895705785144
0	3314	6508.490750231926	35.280812495092
0	3316	6509.90926272044	1.418512488514
0	3320	6522.118073039502	12.208810319062
0	3322	6529.679827458245	7.561754418743
0	3324	6542.121590096201	12.441762637956
0	3327	6550.067469942045	7.945879845844
0	3330	6564.917102788118	14.849632846073
0	3333	6567.149801733921	2.232698945803
0	3335	6571.003570560825	3.853768826904
0	3337	6571.350461581259	0.346891020434
0	3341	6577.342461295656	5.991999714397
0	3345	6581.461658806407	4.119197510751
0	3347	6587.427652365564	5.965993559157
0	3349	6588.752210198325	1.324557832761
0	3352	6592.355761691114	3.603551492789
0	3354	6592.927263572974	0.57150188186
0	3362	6616.369841852615	23.442578279641
0	3364	6617.970010545364	1.600168692749
0	3366	6620.453322936431	2.483312391067
0	3368	6638.199124953627	17.745802017196
0	3370	6644.087586463451	5.888461509824
0	3373	6650.173871527144	6.086285063693
0	3375	6655.577117302275	5.403245775131
0	3378	6659.517738547619	3.940621245344
0	3380	6660.056228066499	0.53848951888
0	3383	6668.927228103538	8.871000037039
0	3388	6676.399463413379	7.472235309841
0	3392	6692.733245109514	16.333781696135
0	3394	6707.962629095115	15.229383985601
0	3396	6712.211889933704	4.249260838589
0	3398	6714.340439062518	2.128549128814
0	3400	6714.487583646873	0.147144584355
0	3406	6735.444405960614	20.956822313741
0	3409	6738.483619835051	3.039213874437
0	3414	6754.562000429726	16.078380594675
0	3416	6761.339868892539	6.777868462813
0	3418	6763.385209344313	2.045340451774
0	3420	6769.111942904595	5.726733560282
0	3423	6777.67695997936	8.565017074765
0	3425	6780.474287053883	2.797327074523
0	3429	6785.776753685661	5.302466631778
0	3431	6787.387457231491	1.61070354583
0	3433	6788.002413601969	0.614956370478
0	3436	6792.941089408215	4.938675806246
0	3438	6794.660266222421	1.719176814206
0	3444	6802.247114219577	7.586847997156
0	3447	6805.906050383712	3.658936164135
0	3449	6807.84190310689	1.935852723178
0	3455	6819.408904245417	11.567001138527
0	3459	6854.743140518672	35.334236273255
0	3461	6860.053283242839	5.310142724167
0	3464	6872.585943299269	12.53266005643
0	3466	6873.3567776029	0.770834303631
0	3469	6876.188238592019	2.831460989119
0	3474	6891.929358021253	15.741119429234
0	3477	6896.168903276355	4.239545255102
0	3479	6897.885422471968	1.716519195613
0	3481	6898.539739433158	0.65431696119
0	3486	6921.139054708412	22.599315275254
0	3488	6928.496745783695	7.357691075283
0	3490	6929.077956902599	0.581211118904
0	3492	6930.107511251173	1.029554348574
0	3495	6938.609941628226	8.502430377053
0	3497	6942.882368330956	4.27242670273
0	3500	6943.869028937548	0.986660606592
0	3503	6948.749692674505	4.880663736957
0	3506	6952.534565578295	3.78487290379
0	3508	6956.450062064076	3.915496485781
0	3511	6967.968536184955	11.518474120879
0	3513	6969.358182327792	1.389646142837
0	3515	6970.0778464275	0.719664099708
0	3519	6984.467175615256	14.389329187756
0	3521	6986.174855230015	1.707679614759
0	3526	7000.347914373051	14.173059143036
0	3530	7017.789520075684	17.441605702633
0	3533	7024.15703422805	6.367514152366
0	3537	7027.958586930237	3.801552702187
0	3540	7038.278813319107	10.32022638887
0	3543	7041.70582563156	3.427012312453
0	3545	7042.300368068911	0.594542437351
0	3547	7043.638677216043	1.338309147132
0	3549	7044.883071880231	1.244394664188
0	3551	7045.792999719094	0.909927838863
0	3556	7053.0781518302	7.285152111106
0	3562	7075.897120878738	22.818969048538
0	3564	7079.026508947049	3.129388068311
0	3566	7080.378512431522	1.352003484473
0	3571	7108.134533888505	27.756021456983
0	3573	7117.874227232633	9.739693344128
0	3575	7122.066427315238	4.192200082605
0	3577	7122.95163942812	0.885212112882
0	3579	7125.076996365522	2.125356937402
0	3584	7130.904420592852	5.82742422733
0	3586	7131.242470851534	0.338050258682
0	3588	7133.162126633765	1.919655782231
0	3590	7134.080310259935	0.91818362617
0	3592	7138.518600416916	4.438290156981
0	3598	7140.269459735	1.750859318084
0	3604	7152.786084600335	12.516624865335
0	3606	7157.464926583304	4.678841982969
0	3611	7169.474375534893	12.009448951589
0	3613	7170.978198106319	1.503822571426
0	3616	7173.455019369805	2.476821263486
0	3621	7185.003577432052	11.548558062247
0	3623	7185.49992486769	0.496347435638
0	3626	7191.561626520726	6.061701653036
0	3628	7191.749167393021	0.187540872295
0	3631	7198.065408031508	6.316240638487
0	3633	7204.902077366734	6.836669335226
0	3637	7215.055556876007	10.153479509273
0	3641	7218.83390655254	3.778349676533
0	3644	7219.887060793616	1.053154241076
0	3646	7220.7122515573	0.825190763684
0	3652	7235.692246349926	14.979994792626
0	3654	7236.057933131639	0.365686781713
0	3656	7236.615834915283	0.557901783644
0	3659	7237.340415236966	0.724580321683
0	3665	7248.607487366357	11.267072129391
0	3667	7249.416282708105	0.808795341748
0	3669	7253.990217516766	4.573934808661
0	3671	7258.091648497489	4.101430980723
0	3673	7261.238180047029	3.14653154954
0	3676	7264.312491311356	3.074311264327
0	3678	7266.500731873369	2.188240562013
0	3682	7275.955098849073	9.454366975704
0	3686	7284.326074951054	8.370976101981
0	3688	7287.800731137918	3.474656186864
0	3694	7307.776505104522	19.975773966604
0	3698	7319.198430593192	11.42192548867
0	3701	7324.547863930048	5.349433336856
0	3704	7339.402335747229	14.854471817181
0	3706	7342.392653094118	2.990317346889
0	3708	7345.470037579538	3.07738448542
0	3710	7346.698152163037	1.228114583499
0	3712	7347.141150333026	0.442998169989
0	3715	7351.341734744664	4.200584411638
0	3717	7355.734319559723	4.392584815059
0	3719	7359.855676458398	4.121356898675
0	3721	7360.144755643929	0.289079185531
0	3728	7372.37442641072	12.229670766791
0	3732	7379.12757410671	6.75314769599
0	3735	7384.68965034496	5.56207623825
0	3737	7386.258945395685	1.569295050725
0	3740	7393.912499318169	7.653553922484
0	3744	7399.578704385197	5.666205067028
0	3746	7404.521745646692	4.943041261495
0	3750	7413.511949834257	8.990204187565
0	3752	7415.851732394366	2.339782560109
0	3755	7436.787487483381	20.935755089015
0	3758	7443.841357555811	7.05387007243
0	3761	7455.243510365592	11.402152809781
0	3763	7458.734516781777	3.491006416185
0	3765	7462.021048563762	3.286531781985
0	3771	7480.919251245491	18.898202681729
0	3773	7482.794697868405	1.875446622914
0	3775	7488.974832064176	6.180134195771
0	3777	7490.036261061293	1.061428997117
0	3782	7502.859866206305	12.823605145012
0	3784	7505.670102554473	2.810236348168
0	3787	7512.552461262929	6.882358708456
0	3789	7515.291669951703	2.739208688774
0	3794	7526.931212783976	11.639542832273
0	3799	7538.852930844287	11.921718060311
0	3802	7540.656715077938	1.803784233651
0	3804	7548.350239972125	7.693524894187
0	3807	7552.922107626822	4.571867654697
0	3812	7567.449761685321	14.527654058499
0	3814	7568.369995139855	0.920233454534
0	3817	7576.381545932266	8.011550792411
0	3819	7578.238545217436	1.85699928517
0	3821	7580.597603479398	2.359058261962
0	3824	7583.831027230754	3.233423751356
0	3826	7586.323910618053	2.492883387299
0	3830	7598.481504475153	12.1575938571
0	3832	7599.338177728858	0.856673253705
0	3835	7600.949141817768	1.61096408891
0	3838	7609.0338121257	8.084670307932
0	3842	7612.259292105491	3.225479979791
0	3844	7612.562244452221	0.30295234673
0	3847	7615.448292963341	2.88604851112
0	3851	7629.379069114053	13.930776150712
0	3857	7651.640201528049	22.261132413996
0	3860	7674.949340911514	23.309139383465
0	3862	7678.921841613399	3.972500701885
0	3866	7689.216598244763	10.294756631364
0	3868	7691.500231134499	2.283632889736
0	3870	7691.820570515116	0.320339380617
0	3873	7695.049341202538	3.228770687422
0	3876	7702.535363490913	7.486022288375
0	3878	7710.499507321452	7.964143830539
0	3881	7720.968747521501	10.469240200049
0	3884	7729.264178173831	8.29543065233
0	3886	7730.514320877177	1.250142703346
0	3888	7736.681382541428	6.167061664251
0	3892	7744.95364087849	8.272258337062
0	3894	7753.291476523614	8.337835645124
0	3898	7764.87412217494	11.582645651326
0	3900	7768.966076331178	4.091954156238
0	3904	7778.190888734013	9.224812402835
0	3907	7782.937143575142	4.746254841129
0	3911	7799.663046161612	16.72590258647
0	3913	7800.141363687748	0.478317526136
0	3916	7804.931421857237	4.790058169489
0	3918	7807.128666807552	2.197244950315
0	3920	7807.143262519701	0.014595712149
0	3923	7812.421227783651	5.27796526395
0	3929	7814.635620227657	2.214392444006
0	3931	7815.650404542226	1.014784314569
0	3935	7823.902892228593	8.252487686367
0	3937	7824.044305379175	0.141413150582
0	3940	7831.948140746475	7.9038353673
0	3942	7834.195671431399	2.247530684924
0	3945	7836.253447244434	2.057775813035
0	3950	7849.069009192685	12.815561948251
0	3954	7865.96440774807	16.895398555385
0	3957	7868.757063974297	2.792656226227
0	3959	7868.82250048717	0.065436512873
0	3962	7873.307032938139	4.484532450969
0	3966	7876.930024231091	3.622991292952
0	3971	7886.605258689032	9.675234457941
0	3973	7891.724130000209	5.118871311177
0	3975	7895.450509568031	3.726379567822
0	3980	7907.449190929246	11.998681361215
0	3982	7916.146691109766	8.69750018052
0	3984	7921.713206959684	5.566515849918
0	3986	7926.65551732752	4.942310367836
0	3988	7933.096846150107	6.441328822587
0	3991	7938.677946781299	5.581100631192
0	3994	7952.159415189191	13.481468407892
0	3996	7954.543071290872	2.383656101681
0	3999	7957.235278181108	2.692206890236
0	4001	7963.301343156088	6.06606497498
0	4003	7967.867572061796	4.566228905708
0	4008	7977.208502720085	9.340930658289
0	4013	7982.974181893632	5.765679173547
0	4016	7991.699127289767	8.724945396135
0	4018	7992.103680846311	0.404553556544
0	4020	7992.461420114715	0.357739268404
0	4023	7995.629707995754	3.168287881039
0	4025	7996.955207300623	1.325499304869
0	4027	7998.274031666308	1.318824365685
0	4030	8001.796167921519	3.522136255211
0	4034	8005.191947479441	3.395779557922
0	4040	8029.323003235928	24.131055756487
0	4043	8045.425402816155	16.102399580227
0	4045	8045.460703387164	0.035300571009
0	4048	8049.223900033647	3.763196646483
0	4051	8058.71553949686	9.491639463213
0	4054	8064.876823657288	6.161284160428
0	4056	8065.268174530416	0.391350873128
0	4059	8068.367754537296	3.09958000688
0	4064	8077.089853399158	8.722098861862
0	4067	8078.179831035978	1.08997763682
0	4069	8079.891238504509	1.711407468531
0	4071	8080.578478693475	0.687240188966
0	4074	8081.953322790262	1.374844096787
0	4076	8082.623789281936	0.670466491674
0	4079	8090.767647222746	8.14385794081
0	4084	8100.291917670809	9.524270448063
0	4086	8101.04389673546	0.751979064651
0	4088	8103.583487805981	2.539591070521
0	4094	8115.403032041739	11.819544235758
0	4096	8116.406710597023	1.003678555284
0	4099	8117.342803932733	0.93609333571
0	4101	8118.858219005127	1.515415072394
0	4104	8119.80924311721	0.951024112083
0	4106	8121.441779202775	1.632536085565
0	4108	8124.114591508006	2.672812305231
0	4112	8129.017947258864	4.903355750858
0	4117	8133.940063854216	4.922116595352
0	4119	8134.266648630813	0.326584776597
0	4122	8140.404818234856	6.138169604043
0	4125	8143.676076593557	3.271258358701
0	4128	8153.671305515873	9.995228922316
0	4131	8170.812362098131	17.141056582258
0	4134	8174.457176796675	3.644814698544
0	4137	8187.958688902223	13.501512105548
0	4141	8196.384244764855	8.425555862632
0	4143	8197.331819909609	0.947575144754
0	4148	8205.732381293624	8.400561384015
0	4151	8214.484829689466	8.752448395842
0	4153	8216.000964387887	1.516134698421
0	4157	8223.187860095732	7.186895707845
0	4160	8230.018757247198	6.830897151466
0	4162	8232.120222381238	2.10146513404
0	4165	8242.669229114466	10.549006733228
0	4169	8244.567520980868	1.898291866402
0	4171	8249.701135375496	5.133614394628
0	4178	8277.031494199049	27.330358823553
0	4182	8302.576967136435	25.545472937386
0	4184	8318.903821351938	16.326854215503
0	4186	8319.117912202073	0.214090850135
0	4188	8334.090824378153	14.97291217608
0	4194	8350.734132039855	16.643307661702
0	4196	8355.870298042237	5.136166002382
0	4198	8358.367141612249	2.496843570012
0	4200	8364.418635117049	6.0514935048
0	4204	8370.788125954084	6.369490837035
0	4207	8384.684634233924	13.89650827984
0	4209	8385.02542148253	0.340787248606
0	4211	8385.847006545378	0.821585062848
0	4213	8385.982598392575	0.135591847197
0	4215	8390.838402081719	4.855803689144
0	4217	8393.648886085933	2.810484004214
0	4220	8397.067197223239	3.418311137306
0	4223	8400.613328283801	3.546131060562
0	4226	8402.414753362466	1.801425078665
0	4228	8405.213557472291	2.798804109825
0	4233	8421.354149042738	16.140591570447
0	4236	8428.617110140781	7.262961098043
0	4243	8443.613696259349	14.996586118568
0	4245	8446.236961197051	2.623264937702
0	4248	8462.652671867287	16.415710670236
0	4251	8471.101893216283	8.449221348996
0	4254	8475.610148544693	4.50825532841
0	4256	8490.278465094843	14.66831655015
0	4258	8496.635374416463	6.35690932162
0	4262	8503.443143046189	6.807768629726
0	4269	8526.610939931742	23.167796885553
0	4271	8535.472146246225	8.861206314483
0	4273	8537.803408035063	2.331261788838
0	4276	8548.895711024819	11.092302989756
0	4278	8560.493436629715	11.597725604896
0	4280	8561.216064614439	0.722627984724
0	4285	8578.806162100899	17.59009748646
0	4287	8578.891820968656	0.085658867757
0	4289	8583.252304469569	4.360483500913
0	4293	8589.257507409175	6.005202939606
0	4297	8601.284659722364	12.027152313189
0	4299	8601.616883492522	0.332223770158
0	4301	8618.741712122896	17.124828630374
0	4304	8622.91247576363	4.170763640734
0	4306	8624.897989172467	1.985513408837
0	4309	8628.640424327208	3.742435154741
0	4312	8637.470126844158	8.82970251695
0	4315	8638.726012208824	1.255885364666
0	4318	8643.468074013424	4.7420618046
0	4324	8655.558157823842	12.090083810418
0	4326	8658.231898478813	2.673740654971
0	4328	8658.239105395735	0.007206916922
0	4330	8660.539227409613	2.300122013878
0	4333	8668.070250846106	7.531023436493
0	4335	8670.475723175831	2.405472329725
0	4337	8672.388310145359	1.912586969528
0	4339	8672.934720936594	0.546410791235
0	4343	8681.835781232849	8.901060296255
0	4352	8698.479673529975	16.643892297126
0	4354	8699.984508082915	1.50483455294
0	4358	8711.553048345472	11.568540262557
0	4360	8713.943807282931	2.390758937459
0	4362	8722.240383456954	8.296576174023
0	4365	8734.272736471723	12.032353014769
0	4367	8734.897565270796	0.624828799073
0	4369	8744.827633067412	9.930067796616
0	4375	8755.240262141807	10.412629074395
0	4379	8764.366288233517	9.12602609171
0	4381	8770.271510229186	5.905221995669
0	4383	8771.219345782504	0.947835553318
0	4385	8771.630879430525	0.411533648021
0	4387	8771.762584592584	0.131705162059
0	4389	8774.854713343051	3.092128750467
0	4391	8775.064480683153	0.209767340102
0	4395	8782.195109598987	7.130628915834
0	4397	8782.331246764253	0.136137165266
0	4401	8789.233546177304	6.902299413051
0	4403	8790.875288690245	1.641742512941
0	4408	8803.268883965018	12.393595274773
0	4410	8806.475940075082	3.207056110064
0	4412	8810.903049032551	4.427108957469
0	4414	8812.696687609772	1.793638577221
0	4417	8819.944999632064	7.248312022292
0	4421	8827.881485626334	7.93648599427
0	4423	8829.190129430709	1.308643804375
0	4426	8834.28674923652	5.096619805811
0	4431	8859.864033244483	25.577284007963
0	4436	8868.244325253972	8.380292009489
0	4439	8875.224884508344	6.980559254372
0	4441	8875.430570164431	0.205685656087
0	4444	8884.642221682935	9.211651518504
0	4446	8889.588228137869	4.946006454934
0	4448	8899.717902500587	10.129674362718
0	4452	8904.72804263488	5.010140134293
0	4454	8905.108330290332	0.380287655452
0	4456	8906.23544623944	1.127115949108
0	4460	8914.211208103489	7.975761864049
0	4465	8919.424858782745	5.213650679256
0	4470	8935.265039022641	15.840180239896
0	4472	8939.689665133109	4.424626110468
0	4477	8946.149570688796	6.459905555687
0	4479	8948.928373438233	2.778802749437
0	4481	8949.335313011347	0.406939573114
0	4483	8949.454431685864	0.119118674517
0	4488	8956.668169208436	7.213737522572
0	4493	8973.025380584178	16.357211375742
0	4495	8976.577027703465	3.551647119287
0	4498	8984.155884523953	7.578856820488
0	4500	8986.595895486631	2.440010962678
0	4503	8989.930158088306	3.334262601675
0	4505	8993.573739514366	3.64358142606
0	4511	9008.839755660495	15.266016146129
0	4513	9016.623013014595	7.7832573541
0	4515	9018.859928278637	2.236915264042
0	4518	9020.973005276718	2.113076998081
0	4520	9032.299044234401	11.326038957683
0	4523	9037.539260201034	5.240215966633
0	4528	9041.873164072075	4.333903871041
0	4530	9046.263086550651	4.389922478576
0	4533	9052.524150454704	6.261063904053
0	4536	9064.465455484543	11.941305029839
0	4538	9064.820990289624	0.355534805081
0	4541	9070.241030703121	5.420040413497
0	4545	9075.064383791757	4.823353088636
0	4548	9077.751858204116	2.687474412359
0	4550	9078.395588168779	0.643729964663
0	4552	9078.763887961913	0.368299793134
0	4554	9079.047538600795	0.283650638882
0	4557	9085.670452328568	6.622913727773
0	4562	9099.92546719572	14.255014867152
0	4565	9104.047501038267	4.122033842547
0	4568	9109.016458983676	4.968957945409
0	4570	9111.168695090852	2.152236107176
0	4574	9116.032604094514	4.863909003662
0	4576	9117.716650086114	1.6840459916
0	4579	9121.69863041177	3.981980325656
0	4582	9124.5817346116	2.88310419983
0	4585	9126.813861624514	2.232127012914
0	4588	9133.543424321322	6.729562696808
0	4591	9139.297488664544	5.754064343222
0	4593	9139.449444973906	0.151956309362
0	4596	9140.973196029062	1.523751055156
0	4598	9143.191221048603	2.218025019541
0	4604	9158.514708717855	15.323487669252
0	4606	9164.569174880315	6.05446616246
0	4609	9174.292224957955	9.72305007764
0	4612	9181.681397641058	7.389172683103
0	4617	9200.893516604977	19.212118963919
0	4619	9201.123515206702	0.229998601725
0	4621	9208.364584372985	7.241069166283
0	4623	9211.927403139215	3.56281876623
0	4627	9217.009387892206	5.081984752991
0	4630	9224.299000179645	7.289612287439
0	4632	9230.711537585646	6.412537406001
0	4636	9233.394986320007	2.683448734361
0	4638	9239.677181392623	6.282195072616
0	4641	9241.957606864396	2.280425471773
0	4643	9244.056972373112	2.099365508716
0	4646	9245.407579599064	1.350607225952
0	4649	9250.417337905146	5.009758306082
0	4652	9251.626047699621	1.208709794475
0	4655	9254.563726876147	2.937679176526
0	4658	9259.462248814513	4.898521938366
0	4660	9265.797509795675	6.335260981162
0	4662	9266.638579106653	0.841069310978
0	4665	9277.395948002416	10.757368895763
0	4668	9282.625503294096	5.22955529168
0	4671	9284.980195684217	2.354692390121
0	4674	9290.056200162433	5.076004478216
0	4677	9292.83908291976	2.782882757327
0	4681	9294.407997344939	1.568914425179
0	4684	9297.401864239133	2.993866894194
0	4686	9297.444118921971	0.042254682838
0	4689	9299.87524140078	2.431122478809
0	4697	9310.233244866269	10.358003465489
0	4700	9313.94359907221	3.710354205941
0	4702	9313.991131371932	0.047532299722
0	4705	9315.143135814106	1.152004442174
0	4711	9331.522411423058	16.379275608952
0	4715	9352.153311194894	20.630899771836
0	4718	9357.870376223767	5.717065028873
0	4720	9361.041618346755	3.171242122988
0	4723	9365.289549896822	4.247931550067
0	4725	9367.117939533413	1.828389636591
0	4728	9369.393712816188	2.275773282775
0	4730	9371.107374257643	1.713661441455
0	4735	9380.192488144932	9.085113887289
0	4738	9385.115368770478	4.922880625546
0	4740	9385.424820489269	0.309451718791
0	4742	9393.126410396053	7.701589906784
0	4745	9398.837357935782	5.710947539729
0	4748	9399.863363479195	1.026005543413
0	4750	9402.282175047476	2.418811568281
0	4753	9405.761229158561	3.479054111085
0	4756	9408.474795348097	2.713566189536
0	4760	9420.112401212438	11.637605864341
0	4762	9421.477681054863	1.365279842425
0	4764	9421.573771843122	0.096090788259
0	4768	9429.962383669415	8.388611826293
0	4771	9434.820653900305	4.85827023089
0	4776	9445.641791078216	10.821137177911
0	4778	9451.111371602919	5.469580524703
0	4780	9457.978638503337	6.867266900418
0	4783	9458.465359954493	0.486721451156
0	4785	9460.776581030694	2.311221076201
0	4790	9469.3423098833	8.565728852606
0	4793	9473.807159531331	4.464849648031
0	4798	9490.197429344162	16.390269812831
0	4800	9492.592370588495	2.394941244333
0	4803	9501.058816847329	8.466446258834
0	4807	9507.002756859295	5.943940011966
0	4810	9510.955000485418	3.952243626123
0	4812	9513.814485886354	2.859485400936
0	4814	9516.73962102543	2.925135139076
0	4818	9524.16047833126	7.42085730583
0	4820	9527.280691934224	3.120213602964
0	4822	9529.687089477922	2.406397543698
0	4828	9532.720506176285	3.033416698363
0	4830	9535.303035013961	2.582528837676
0	4832	9535.937362561931	0.63432754797
0	4834	9536.150799396253	0.213436834322
0	4837	9542.049449429707	5.898650033454
0	4840	9546.137790595314	4.088341165607
0	4844	9552.49505310034	6.357262505026
0	4846	9555.711101112379	3.216048012039
0	4848	9559.187437348453	3.476336236074
0	4851	9569.761391774132	10.573954425679
0	4858	9587.312734216136	17.551342442004
0	4860	9593.197351476284	5.884617260148
0	4863	9603.59366662029	10.396315144006
0	4866	9612.923751923917	9.330085303627
0	4868	9628.809384654563	15.885632730646
0	4871	9638.985698421797	10.176313767234
0	4875	9644.741717834499	5.756019412702
0	4878	9645.650113624203	0.908395789704
0	4881	9651.824306778461	6.174193154258
0	4883	9654.111672456726	2.287365678265
0	4886	9655.357820087174	1.246147630448
0	4888	9656.174433846106	0.816613758932
0	4891	9658.016228578097	1.841794731991
0	4894	9661.246029847507	3.22980126941
0	4896	9661.32276229238	0.076732444873
0	4903	9678.855624803203	17.532862510823
0	4906	9683.352386263386	4.496761460183
0	4908	9691.887744315093	8.535358051707
0	4910	9693.759282957758	1.871538642665
0	4912	9694.041294782984	0.282011825226
0	4914	9695.921511355768	1.880216572784
0	4916	9696.936792653414	1.015281297646
0	4921	9706.368780264754	9.43198761134
0	4923	9710.838956090166	4.470175825412
0	4925	9712.423763983797	1.584807893631
0	4929	9726.03687759909	13.613113615293
0	4931	9726.791840120275	0.754962521185
0	4934	9733.352787772738	6.560947652463
0	4937	9737.666827669901	4.314039897163
0	4940	9744.60538316709	6.938555497189
0	4943	9750.037878006756	5.432494839666
0	4945	9750.291530638574	0.253652631818
0	4947	9750.456595208098	0.165064569524
0	4951	9755.209579211498	4.7529840034
0	4955	9760.750496541618	5.54091733012
0	4961	9766.491581977823	5.741085436205
0	4964	9776.844739916169	10.353157938346
0	4966	9780.785393456472	3.940653540303
0	4969	9784.373447541877	3.588054085405
0	4971	9785.090889529622	0.717441987745
0	4974	9787.398889918536	2.308000388914
0	4976	9789.907551141413	2.508661222877
0	4979	9790.724089059818	0.816537918405
0	4981	9800.44118002053	9.717090960712
0	4989	9814.367817582782	13.926637562252
0	4992	9830.399359038191	16.031541455409
0	4995	9834.688431276155	4.289072237964
0	4999	9843.74476240266	9.056331126505
0	5001	9844.032194154174	0.287431751514
0	5003	9848.674321705269	4.642127551095
0	5005	9850.525821593129	1.85149988786
0	5007	9852.075906632943	1.550085039814
0	5010	9855.982716784149	3.906810151206
0	5016	9886.335535030031	30.352818245882
0	5019	9891.088616685942	4.753081655911
0	5023	9901.448301041206	10.359684355264
0	5025	9903.579324952912	2.131023911706
0	5028	9906.003381015513	2.424056062601
0	5030	9909.313744050664	3.310363035151
0	5032	9910.566364362362	1.252620311698
0	5035	9917.644005769606	7.077641407244
0	5037	9919.069886923421	1.425881153815
0	5041	9928.707885692974	9.637998769553
0	5046	9945.381347240194	16.67346154722
0	5048	9954.218961074615	8.837613834421
0	5050	9955.921094494912	1.702133420297
0	5052	9962.320731474239	6.399636979327
0	5054	9963.002713261048	0.681981786809
0	5057	9968.366622526673	5.363909265625
0	5061	9978.595108419548	10.228485892875
0	5064	9983.881880961994	5.286772542446
0	5068	10000.619245565958	16.737364603964
0	5070	10001.893421573162	1.274176007204
0	5073	10006.132180969444	4.238759396282
0	5077	10009.112402143018	2.980221173574
0	5079	10009.310538204722	0.198136061704
0	5081	10012.553805403793	3.243267199071
0	5083	10014.345627554029	1.791822150236
0	5087	10019.111010163305	4.765382609276
0	5090	10022.763481913619	3.652471750314
0	5092	10029.125498790359	6.36201687674
0	5096	10036.433158014514	7.307659224155
0	5099	10041.439150212789	5.005992198275
0	5102	10051.520064534538	10.080914321749
0	5104	10053.204510000172	1.684445465634
0	5111	10065.169084632296	11.964574632124
0	5115	10076.925706683458	11.756622051162
0	5117	10077.648432055634	0.722725372176
0	5120	10080.071475443683	2.423043388049
0	5123	10082.811759695314	2.740284251631
0	5125	10082.997418232407	0.185658537093
0	5129	10091.455046553813	8.457628321406
0	5133	10101.890430600614	10.435384046801
0	5135	10104.008131182275	2.117700581661
0	5138	10121.074880173061	17.066748990786
0	5140	10121.386686938607	0.311806765546
0	5142	10123.590042907117	2.20335596851
0	5144	10125.802023217817	2.2119803107
0	5147	10133.510467517159	7.708444299342
0	5149	10137.233631744345	3.723164227186
0	5151	10138.681162918023	1.447531173678
0	5153	10139.069707836303	0.38854491828
0	5157	10143.863432679813	4.79372484351
0	5161	10147.05248520102	3.189052521207
0	5170	10167.864969901232	20.812484700212
0	5173	10171.442897661804	3.577927760572
0	5175	10172.368188277465	0.925290615661
0	5178	10183.963284187218	11.595095909753
0	5181	10186.298140972544	2.334856785326
0	5184	10190.31472258668	4.016581614136
0	5188	10207.046333707625	16.731611120945
0	5191	10214.742485641532	7.696151933907
0	5193	10218.096849832931	3.354364191399
0	5196	10224.122881216067	6.026031383136
0	5198	10226.301938571934	2.179057355867
0	5201	10226.502631886528	0.200693314594
0	5204	10229.638056743564	3.135424857036
0	5206	10231.633460932799	1.995404189235
0	5211	10240.818455709367	9.184994776568
0	5214	10241.841395180442	1.022939471075
0	5217	10243.18829203524	1.346896854798
0	5220	10249.926407903704	6.738115868464
0	5225	10270.681290588203	20.754882684499
0	5227	10275.529742014344	4.848451426141
0	5229	10276.104505280976	0.574763266632
0	5232	10279.562414914086	3.45790963311
0	5237	10285.207564913345	5.645149999259
0	5239	10287.708216038028	2.500651124683
0	5241	10291.071250487566	3.363034449538
0	5244	10295.513757871741	4.442507384175
0	5250	10314.84528966871	19.331531796969
0	5253	10325.160342261206	10.315052592496
0	5256	10330.452236623328	5.291894362122
0	5258	10330.694756008816	0.242519385488
0	5260	10331.664938020901	0.970182012085
0	5262	10332.258361745566	0.593423724665
0	5266	10340.254769536769	7.996407791203
0	5270	10349.712280089498	9.457510552729
0	5274	10381.401892666831	31.689612577333
0	5276	10384.318452844833	2.916560178002
0	5279	10385.197532581363	0.87907973653
0	5283	10398.511726297071	13.314193715708
0	5285	10399.289726006827	0.777999709756
0	5287	10403.862861221067	4.57313521424
0	5291	10408.665215170666	4.802353949599
0	5295	10434.619153662914	25.953938492248
0	5298	10435.750028873247	1.130875210333
0	5303	10463.87401027839	28.123981405143
0	5305	10475.344053943252	11.470043664862
0	5309	10481.350841987639	6.006788044387
0	5311	10482.750876249416	1.400034261777
0	5313	10490.91088765333	8.160011403914
0	5317	10523.89821184446	32.98732419113
0	5320	10529.998609192571	6.100397348111
0	5323	10549.236102405221	19.23749321265
0	5325	10550.377857428584	1.141755023363
0	5327	10555.358819528574	4.98096209999
0	5330	10556.542963302267	1.184143773693
0	5332	10557.041368066799	0.498404764532
0	5336	10561.146746221317	4.105378154518
0	5338	10561.874211140852	0.727464919535
0	5340	10565.504217916582	3.63000677573
0	5342	10567.07085152408	1.566633607498
0	5344	10575.184360589718	8.113509065638
0	5347	10581.920999165013	6.736638575295
0	5353	10595.284130902512	13.363131737499
0	5355	10595.681781444033	0.397650541521
0	5358	10600.384157608632	4.702376164599
0	5362	10608.972831224687	8.588673616055
0	5365	10612.283577832889	3.310746608202
0	5367	10613.049052134445	0.765474301556
0	5370	10618.865098057453	5.816045923008
0	5376	10630.357499504575	11.492401447122
0	5378	10632.84087580956	2.483376304985
0	5381	10643.35991184027	10.51903603071
0	5384	10649.649017858748	6.289106018478
0	5386	10650.196032038643	0.547014179895
0	5388	10650.420526942305	0.224494903662
0	5390	10655.017891744467	4.597364802162
0	5394	10662.972487677161	7.954595932694
0	5396	10663.290236730845	0.317749053684
0	5400	10666.956630570629	3.666393839784
0	5402	10671.946949434266	4.990318863637
0	5406	10677.282649220236	5.33569978597
0	5410	10680.230734810534	2.948085590298
0	5413	10684.108626138619	3.877891328085
0	5418	10696.195103418047	12.086477279428
0	5420	10701.346931511799	5.151828093752
0	5423	10704.1994348031	2.852503291301
0	5425	10704.951446413769	0.752011610669
0	5431	10721.988628453743	17.037182039974
0	5433	10723.927777946175	1.939149492432
0	5435	10726.052479512805	2.12470156663
0	5437	10728.005032805458	1.952553292653
0	5440	10730.060639481553	2.055606676095
0	5442	10734.514912040601	4.454272559048
0	5447	10748.458206306797	13.943294266196
0	5449	10752.945259387425	4.487053080628
0	5451	10753.852215888444	0.906956501019
0	5453	10758.926200416237	5.073984527793
0	5456	10767.135737937924	8.209537521687
0	5458	10768.215184340297	1.079446402373
0	5460	10768.608313000199	0.393128659902
0	5462	10770.394698869226	1.786385869027
0	5469	10784.621494281769	14.226795412543
0	5472	10786.760747699874	2.139253418105
0	5474	10792.695765298874	5.935017599
0	5476	10793.858685263797	1.162919964923
0	5482	10802.788649795515	8.929964531718
0	5484	10803.420924797295	0.63227500178
0	5490	10814.232132044321	10.811207247026
0	5492	10814.918914943271	0.68678289895
0	5496	10815.85593827603	0.937023332759
0	5498	10818.929221347653	3.073283071623
0	5501	10824.679476630366	5.750255282713
0	5504	10826.289681802658	1.610205172292
0	5506	10826.673968538873	0.384286736215
0	5508	10827.135837131165	0.461868592292
0	5512	10830.773403793773	3.637566662608
0	5514	10831.305611963568	0.532208169795
0	5517	10832.649235580403	1.343623616835
0	5520	10840.619224007417	7.969988427014
0	5522	10842.075849888914	1.456625881497
0	5525	10845.477441214359	3.401591325445
0	5527	10846.138131118715	0.660689904356
0	5530	10855.969996989094	9.831865870379
0	5533	10862.366815611848	6.396818622754
0	5538	10869.033745483468	6.66692987162
0	5541	10870.637497198105	1.603751714637
0	5545	10874.21767103543	3.580173837325
0	5550	10875.305408111261	1.087737075831
0	5552	10875.502354807324	0.196946696063
0	5554	10876.927986795818	1.425631988494
0	5556	10885.098870924102	8.170884128284
0	5561	10892.566079790946	7.467208866844
0	5567	10902.30221278259	9.736132991644
0	5570	10905.187709298426	2.885496515836
0	5573	10911.174388874325	5.986679575899
0	5577	10925.785694285319	14.611305410994
0	5580	10928.916842706278	3.131148420959
0	5582	10929.049896363162	0.133053656884
0	5584	10929.429558201477	0.379661838315
0	5587	10943.252844778709	13.823286577232
0	5589	10946.671399791041	3.418555012332
0	5591	10950.424404860593	3.753005069552
0	5593	10951.265869560704	0.841464700111
0	5595	10952.572319055256	1.306449494552
0	5600	10957.89548813712	5.323169081864
0	5604	10966.941236083089	9.045747945969
0	5606	10968.937727819446	1.996491736357
0	5608	10969.843885626258	0.906157806812
0	5611	10975.628877545951	5.784991919693
0	5613	10980.80388099801	5.175003452059
0	5617	10984.78797628093	3.98409528292
0	5620	10988.014864426667	3.226888145737
0	5623	10991.80929095523	3.794426528563
0	5625	10993.004951424024	1.195660468794
0	5629	10996.723737389345	3.718785965321
0	5631	10997.375829505035	0.65209211569
0	5633	10998.287476289066	0.911646784031
0	5635	10998.4861917785	0.198715489434
0	5639	11008.153923482238	9.667731703738
0	5643	11016.632697427577	8.478773945339
0	5651	11050.61121106096	33.978513633383
0	5655	11064.317207512761	13.705996451801
0	5658	11065.799619722622	1.482412209861
0	5660	11068.753661385747	2.954041663125
0	5663	11082.132462181708	13.378800795961
0	5665	11082.470946557153	0.338484375445
0	5667	11083.095247429793	0.62430087264
0	5671	11092.530106196642	9.434858766849
0	5674	11101.907001990151	9.376895793509
0	5678	11120.997377690683	19.090375700532
0	5680	11121.399087629533	0.40170993885
0	5682	11124.165379285385	2.766291655852
0	5684	11129.627255169303	5.461875883918
0	5687	11131.98515698545	2.357901816147
0	5691	11143.363679908678	11.378522923228
0	5693	11146.948434965085	3.584755056407
0	5696	11153.986344373575	7.03790940849
0	5701	11179.347131395025	25.36078702145
0	5703	11182.853885797651	3.506754402626
0	5705	11186.91175525476	4.057869457109
0	5707	11189.381053170852	2.469297916092
0	5712	11195.978061703726	6.597008532874
0	5716	11217.520904681996	21.54284297827
0	5720	11230.752422435303	13.231517753307
0	5723	11234.845748435435	4.093326000132
0	5725	11255.966674641176	21.120926205741
0	5728	11258.52304364273	2.556369001554
0	5731	11292.649262512313	34.126218869583
0	5735	11304.583665471415	11.934402959102
0	5737	11330.419601874473	25.835936403058
0	5741	11339.230572921629	8.810971047156
0	5744	11345.845320003255	6.614747081626
0	5746	11351.500517314214	5.655197310959
0	5748	11372.17854439981	20.678027085596
0	5750	11373.503057416196	1.324513016386
0	5757	11386.854793846891	13.351736430695
0	5761	11407.489274307072	20.634480460181
0	5763	11408.995647066325	1.506372759253
0	5765	11412.222676975671	3.227029909346
0	5767	11423.192782905193	10.970105929522
0	5769	11423.489934225351	0.297151320158
0	5771	11424.031240937132	0.541306711781
0	5774	11426.21399928964	2.182758352508
0	5776	11434.411714877594	8.197715587954
0	5781	11440.547760443559	6.136045565965
0	5786	11456.51333400936	15.965573565801
0	5788	11457.958584540919	1.445250531559
0	5790	11461.01869677932	3.060112238401
0	5793	11463.824923061822	2.806226282502
0	5795	11467.279928651352	3.45500558953
0	5801	11491.175419360374	23.895490709022
0	5803	11492.044577325116	0.869157964742
0	5806	11500.542972358482	8.498395033366
0	5809	11502.657009273062	2.11403691458
0	5811	11504.125276338473	1.468267065411
0	5816	11517.488851927648	13.363575589175
0	5818	11517.887205945151	0.398354017503
0	5823	11538.769417765919	20.882211820768
0	5825	11541.967711141551	3.198293375632
0	5828	11548.586074304655	6.618363163104
0	5830	11554.647344534431	6.061270229776
0	5833	11555.848976160714	1.201631626283
0	5835	11556.364402003944	0.51542584323
0	5837	11565.556461904394	9.19205990045
0	5839	11567.245909488002	1.689447583608
0	5844	11576.538823071026	9.292913583024
0	5846	11578.414878397936	1.87605532691
0	5848	11582.164320305977	3.749441908041
0	5851	11590.097389291545	7.933068985568
0	5854	11593.094716437989	2.997327146444
0	5856	11593.65071839051	0.556001952521
0	5863	11623.060169601692	29.409451211182
0	5865	11630.505127374912	7.44495777322
0	5867	11632.637707696748	2.132580321836
0	5870	11635.152815283663	2.515107586915
0	5872	11638.574846538851	3.422031255188
0	5874	11641.250604030272	2.675757491421
0	5877	11649.271637328085	8.021033297813
0	5881	11655.167350069372	5.895712741287
0	5884	11659.126994112917	3.959644043545
0	5887	11661.64756409015	2.520569977233
0	5890	11680.394652864344	18.747088774194
0	5894	11690.501251831248	10.106598966904
0	5899	11699.352050215682	8.850798384434
0	5902	11711.45602352194	12.103973306258
0	5904	11713.33898998849	1.88296646655
0	5906	11714.789145477957	1.450155489467
0	5908	11720.238111961671	5.448966483714
0	5911	11726.133306810975	5.895194849304
0	5913	11729.43732253955	3.304015728575
0	5915	11731.497040679288	2.059718139738
0	5919	11732.57438805298	1.077347373692
0	5921	11732.758426632663	0.184038579683
0	5927	11758.463173920046	25.704747287383
0	5929	11758.73596281281	0.272788892764
0	5931	11762.493462305012	3.757499492202
0	5933	11765.0241743237	2.530712018688
0	5940	11775.479220245628	10.455045921928
0	5945	11794.54129179764	19.062071552012
0	5947	11795.325381918564	0.784090120924
0	5951	11810.834681784591	15.509299866027
0	5953	11818.725626716938	7.890944932347
0	5956	11821.84836987348	3.122743156542
0	5961	11837.088133704174	15.239763830694
0	5964	11844.889801961669	7.801668257495
0	5966	11847.769402022584	2.879600060915
0	5971	11858.613569662813	10.844167640229
0	5973	11888.469491506554	29.855921843741
0	5975	11898.023269248036	9.553777741482
0	5978	11903.290020502402	5.266751254366
[...]
4	20084	39174.782660912812	3
4	20085	39175.036563280189	5
4	20090	39191.402599899572	2
4	20093	39201.736178019427	2
4	20096	39206.33637584982	4
4	20101	39210.09443950332	5
4	20106	39215.42980793085	8
4	20109	39218.401308029738	4
4	20110	39219.208809585767	8
4	20111	39219.355403669562	1
4	20116	39235.314723637756	6
4	20117	39235.586582027758	4
4	20122	39242.385177943997	6
4	20123	39245.542463066003	0
4	20124	39253.354227116044	1
4	20129	39259.793891806546	7
4	20138	39271.016817812497	9
4	20142	39274.508817998656	7
4	20147	39289.143827026706	9
4	20150	39290.207577638439	6
4	20154	39295.235113131876	8
4	20157	39299.997797051347	2
4	20158	39302.068726163419	0
4	20161	39311.092256582463	7
4	20164	39314.237512822569	3
4	20167	39317.574844285155	4
4	20172	39323.877248479964	8
4	20177	39336.436128218697	7
4	20180	39337.166694357744	3
4	20183	39337.891248858142	5
4	20184	39338.909567617299	6
4	20185	39339.605701978733	7
4	20186	39349.138402919182	9
4	20187	39349.237038967966	3
4	20188	39349.708152343709	4
4	20189	39352.277621419966	2
4	20190	39352.532612490109	0
4	20195	39356.34297249764	8
4	20196	39358.14197433213	0
4	20205	39379.239373281386	5
4	20206	39379.754741001328	2
4	20211	39388.144937663018	0
4	20212	39389.88163257396	3
4	20217	39396.774451950546	5
4	20218	39400.897410277348	3
4	20219	39402.119645061024	2
4	20220	39402.632820740571	4
4	20221	39406.090997595132	0
4	20226	39412.830197271171	2
4	20227	39415.752460249115	1
4	20230	39425.029986435342	0
4	20239	39442.75285779372	2
4	20240	39444.693357955199	1
4	20243	39447.149463620094	4
4	20244	39451.589985425524	3
4	20249	39479.466024195204	1
4	20252	39480.14106290024	3
4	20255	39481.192420085896	1
4	20262	39490.667363505706	2
4	20263	39496.857353028502	3
4	20264	39497.4441803635	1
4	20265	39499.191347892147	0
4	20270	39504.09587393299	0
4	20271	39507.154301649492	5
4	20274	39512.551646414826	0
4	20277	39513.668573479488	4
4	20280	39522.229821169462	1
4	20291	39548.305100386896	5
4	20294	39557.285463963671	1
4	20295	39558.561894866469	0
4	20296	39561.595933624598	2
4	20297	39565.194705283705	3
4	20302	39582.327472226868	1
4	20305	39585.23693510357	6
4	20308	39586.692626594309	1
4	20311	39589.699808682549	5
4	20312	39592.087241577236	4
4	20315	39593.551236629743	3
4	20318	39602.963848690674	2
4	20323	39610.459780859394	1
4	20326	39612.854268751369	2
4	20329	39624.515859858059	0
4	20338	39634.297361543762	4
4	20343	39646.744825042622	7
4	20346	39650.194107052104	4
4	20347	39652.796321447909	0
4	20348	39654.44561949221	7
4	20351	39655.256013566084	1
4	20352	39656.813813811107	6
4	20361	39666.202251870783	5
4	20362	39666.856034343572	2
4	20371	39673.595498976707	1
4	20374	39673.749239299036	5
4	20377	39674.463406175186	6
4	20381	39683.387128343594	3
4	20385	39685.903210316374	3
4	20391	39701.390494979722	2
4	20394	39702.719019093889	1
4	20397	39702.969214467216	9
4	20404	39712.966944858493	8
4	20408	39716.823837696467	1
4	20412	39722.856376697345	4
4	20415	39727.012100762567	0
4	20419	39730.389157435979	1
4	20422	39733.32712826318	0
4	20425	39735.3514892665	8
4	20428	39736.469971189416	3
4	20431	39739.441687660339	8
4	20432	39742.044716468426	6
4	20435	39744.571131578995	9
4	20438	39746.055921310049	7
4	20439	39746.388277532201	8
4	20442	39761.446101416388	6
4	20443	39775.647457941973	2
4	20444	39787.178784838942	5
4	20455	39800.288937845344	4
4	20456	39800.374788593778	9
4	20457	39807.596678750827	6
4	20458	39807.955891297829	0
4	20459	39811.566967787136	7
4	20460	39813.286185999567	1
4	20461	39815.04713907056	5
4	20464	39820.569538045391	2
4	20467	39841.418360506589	3
4	20474	39853.723514907808	4
4	20475	39855.381019345477	1
4	20476	39859.581512084061	8
4	20477	39860.642832385564	0
4	20484	39879.372392728603	4
4	20491	39886.337734557444	1
4	20492	39894.799364200296	3
4	20493	39894.802819647425	5
4	20498	39899.030727628799	3
4	20499	39904.058540782074	0
4	20502	39913.182656783386	4
4	20503	39917.216921376962	1
4	20510	39929.060968622294	4
4	20515	39934.130645640063	2
4	20516	39936.008540923399	4
4	20521	39938.990762339254	6
4	20522	39940.710409404969	2
4	20523	39940.783438121488	1
4	20526	39942.579075606603	5
4	20527	39943.254632831504	1
4	20528	39944.779457490097	0
4	20535	39950.87871488858	1
4	20536	39956.221848654651	2
4	20537	39958.745525596785	3
4	20544	39967.964104875865	3
4	20551	39978.618093595933	2
4	20552	39986.499210101342	3
4	20559	39991.808618340671	1
4	20562	40000.275193237103	4
4	20563	40010.62354284151	3
4	20566	40011.301433491417	6
4	20567	40012.561132703782	5
4	20568	40012.83794892584	2
4	20573	40018.506977807334	4
4	20582	40023.946435676788	2
4	20585	40032.541488798038	4
4	20588	40042.225918185622	6
4	20589	40050.881377185569	8
4	20590	40053.030996534516	5
4	20597	40058.305286794735	8
4	20598	40061.039199521119	4
4	20599	40063.020679840518	1
4	20602	40071.683240901489	1
4	20605	40077.109530326352	5
4	20606	40078.101461323832	7
4	20607	40079.101540582792	2
4	20610	40084.016612210699	2
4	20621	40110.773576067388	7
4	20622	40112.238865187314	5
4	20627	40117.295258477685	5
4	20628	40118.362978496324	7
4	20631	40120.860947676516	3
4	20636	40125.068308087534	2
4	20639	40130.563697862497	0
4	20640	40131.699533804245	5
4	20641	40133.299347880039	2
4	20642	40135.235562647276	6
4	20643	40135.830236915774	4
4	20644	40139.884478013403	1
4	20645	40141.132049038025	7
4	20650	40150.567139652471	1
4	20657	40163.392081891863	1
4	20664	40170.78700157212	3
4	20667	40176.9412958135	8
4	20668	40179.793350470133	6
4	20675	40191.164167105546	6
4	20680	40198.756858739799	9
4	20683	40202.562038122858	9
4	20684	40206.316648971793	5
4	20685	40207.313993143451	7
4	20688	40208.624198941621	3
4	20691	40210.019408220908	2
4	20694	40210.825768204593	3
4	20695	40214.282580708404	6
4	20696	40215.944719329677	8
4	20699	40219.176399021489	4
4	20700	40224.512183213285	1
4	20707	40240.225455972585	6
4	20712	40245.921123987389	3
4	20715	40250.546409434204	3
4	20716	40254.217906800443	6
4	20719	40257.689489171562	5
4	20722	40258.705377985641	2
4	20723	40262.770483837879	1
4	20726	40271.047023158387	7
4	20729	40273.911064110756	0
4	20736	40278.702627534446	4
4	20739	40280.532087311124	7
4	20742	40290.253250322145	4
4	20743	40292.417515910836	6
4	20744	40294.615794646725	7
4	20747	40302.400273638541	5
4	20748	40305.618083973747	3
4	20751	40317.913330779264	3
4	20754	40332.206486824269	1
4	20759	40338.789346364972	0
4	20764	40346.04097138787	6
4	20767	40347.956581742837	4
4	20768	40349.655900475372	3
4	20769	40355.757258724009	1
4	20778	40365.617184844197	1
4	20781	40368.777413154495	3
4	20782	40370.128270540995	4
4	20783	40370.324312635442	6
4	20786	40373.089217749117	3
4	20789	40376.916383682958	3
4	20792	40380.696174153376	1
4	20793	40390.322578876654	2
4	20794	40390.400776674382	3
4	20799	40403.198531350325	2
4	20800	40403.372350700528	5
4	20801	40404.29807464559	1
4	20806	40406.10840514617	1
4	20817	40433.90479187172	3
4	20818	40436.349116923354	5
4	20819	40439.032889175489	7
4	20820	40440.320433972629	1
4	20825	40451.184006537129	2
4	20828	40455.272937746801	6
4	20831	40456.542248730042	2
4	20834	40462.627299093526	5
4	20837	40482.672214511226	1
4	20840	40485.781126920548	4
4	20841	40498.306232442872	2
4	20842	40498.859457055077	3
4	20853	40516.075148124182	3
4	20854	40518.355959519487	0
4	20857	40526.986384442991	4
4	20860	40531.146739959063	2
4	20867	40536.634422420641	7
4	20868	40541.491300432102	1
4	20869	40545.493266610954	8
4	20870	40551.069188582596	5
4	20871	40551.756923386256	0
4	20876	40555.84618341905	6
4	20877	40557.84364651974	4
4	20882	40565.125604459253	4
4	20883	40568.224890261011	5
4	20892	40581.925013470183	2
4	20895	40585.46163311594	7
4	20898	40586.658452287548	1
4	20903	40595.300592369596	8
4	20906	40598.996172067531	7
4	20907	40599.978270015707	1
4	20910	40600.91375924069	3
4	20911	40601.457494524327	8
4	20912	40604.69172236862	1
4	20913	40606.093914434495	4
4	20918	40610.139128824385	3
4	20923	40615.886288458328	3
4	20924	40618.974188872955	4
4	20933	40634.281765412552	8
4	20938	40645.145201050835	2
4	20939	40646.793491550412	0
4	20940	40650.396186644274	3
4	20943	40654.262597813589	7
4	20944	40657.945501889958	5
4	20945	40658.610652374142	1
4	20948	40663.628869722812	4
4	20949	40668.884575738678	1
4	20950	40672.421404527512	9
4	20953	40676.488558629423	0
4	20956	40679.561670082063	8
4	20957	40688.757672923074	0
4	20960	40690.166940911283	1
4	20963	40700.294477219782	1
4	20968	40711.651235806877	6
4	20977	40715.947182650142	4
4	20978	40717.54672438226	3
4	20981	40721.949090076356	1
4	20982	40722.571021903148	2
4	20985	40727.460054742593	1
4	20986	40732.339204436425	6
4	20991	40745.016517819907	5
4	20994	40751.058521052776	4
4	21003	40768.079724509724	5
4	21006	40768.401728654955	5
4	21007	40772.92035690395	4
4	21008	40777.408326967235	0
4	21017	40783.620358825583	7
4	21018	40785.607488039483	3
4	21019	40786.725006775399	5
4	21026	40798.723441723623	5
4	21027	40800.655089364824	7
4	21030	40802.99731919906	5
4	21031	40803.951468384256	0
4	21032	40805.851648526176	6
4	21033	40810.785413040928	2
4	21038	40819.521688201784	4
4	21039	40819.539777896736	3
4	21042	40821.414829617345	0
4	21053	40850.654048257393	0
4	21054	40850.74367499398	8
4	21055	40859.413797267138	7
4	21060	40869.95933093737	5
4	21065	40873.265134443186	2
4	21066	40874.574158608065	6
4	21067	40876.513267199032	0
4	21068	40876.762428792917	4
4	21077	40882.578203205845	1
4	21078	40885.066470844583	7
4	21081	40887.320160561585	4
4	21084	40890.568614696035	1
4	21085	40891.429122350656	0
4	21086	40899.058199473784	2
4	21087	40901.093320816871	5
4	21090	40908.794935325563	4
4	21093	40909.752190495105	3
4	21096	40911.076248960422	0
4	21097	40918.461502190832	6
4	21098	40922.787440745803	1
4	21101	40940.316257763179	0
4	21110	40944.898724801091	3
4	21117	40955.145613058311	8
4	21118	40959.655194260283	0
4	21119	40965.861413138435	4
4	21120	40969.394864973301	5
4	21123	40973.488514613573	1
4	21124	40975.009792909236	3
4	21127	40977.308192799252	0
4	21130	40983.674356440253	0
4	21131	40985.148636098397	6
4	21132	40987.883409968058	1
4	21147	41026.804761621029	6
4	21150	41030.662788142837	7
4	21151	41037.338026677945	0
4	21152	41038.167817160259	3
4	21153	41039.241190773768	2
4	21156	41051.872295614934	1
4	21157	41059.057318886155	6
4	21158	41060.220505334949	0
4	21161	41063.776080919238	5
4	21164	41066.409548814901	0
4	21165	41066.876493957989	4
4	21174	41084.315576206392	1
4	21181	41108.080463231065	6
4	21184	41109.745953736771	1
4	21185	41110.979359048503	6
4	21186	41113.809363729252	0
4	21189	41117.12982988976	4
4	21194	41118.768281372	3
4	21195	41122.046661725631	1
4	21198	41125.247168326768	4
4	21199	41128.80054667586	1
4	21200	41128.93648291187	0
4	21201	41129.378949501903	5
4	21208	41135.789856308687	2
4	21211	41143.929210727744	3
4	21212	41144.896236953475	2
4	21217	41156.466104289001	0
4	21218	41160.197032094473	2
4	21219	41164.838320577899	1
4	21222	41183.116628371156	0
4	21227	41186.405545825242	3
4	21230	41194.982229350337	2
4	21233	41206.881948553141	2
4	21234	41207.949602846553	0
4	21241	41219.428663788395	3
4	21244	41224.295183728869	3
4	21249	41236.341893262639	0
4	21254	41246.743890289819	4
4	21257	41258.770275125813	4
4	21262	41272.858073270568	3
4	21272	41279.070176524992	4
4	21275	41280.029524330733	2
4	21279	41284.430661358767	1
4	21282	41285.139757073852	0
4	21283	41287.356532853493	9
4	21286	41289.092179958995	2
4	21292	41294.334580261836	2
4	21295	41294.762035192551	7
4	21299	41299.228031669568	2
4	21303	41302.708215068547	3
4	21306	41305.685435966801	8
4	21309	41311.500437503931	8
4	21312	41313.351508950251	6
4	21313	41316.438926159428	7
4	21314	41317.20395761809	3
4	21319	41320.738264213368	2
4	21322	41321.776118133245	0
4	21325	41325.105086935778	6
4	21326	41326.004113501495	9
4	21331	41335.66538960698	1
4	21334	41347.474522614219	3
4	21335	41348.336940963782	8
4	21336	41354.001979597253	6
4	21337	41356.900621660846	4
4	21338	41364.162631603913	5
4	21339	41365.210091297202	2
4	21342	41369.853021849904	2
4	21343	41372.095754284671	1
4	21346	41382.121980612183	1
4	21355	41412.06815179545	3
4	21356	41412.937394375726	0
4	21365	41435.370888199464	3
4	21368	41442.447208388509	7
4	21371	41449.529764656073	7
4	21374	41452.159799887506	7
4	21381	41461.887998477446	9
4	21382	41464.099829684675	7
4	21385	41470.694852846557	4
4	21391	41482.48525337299	3
4	21394	41484.004100926576	0
4	21395	41484.641485658013	4
4	21398	41487.705085752336	2
4	21399	41487.966842371757	7
4	21400	41489.528569310454	0
4	21401	41491.216309159082	9
4	21402	41494.320578778438	5
4	21403	41495.805893376075	8
4	21404	41497.234700524033	3
4	21411	41503.404485037072	0
4	21412	41506.467003446767	6
4	21413	41507.498501243664	2
4	21420	41521.248191060392	1
4	21423	41524.659437126329	3
4	21424	41525.217419840983	2
4	21429	41534.655920259748	0
4	21434	41540.109870977993	3
4	21435	41543.0607126437	4
4	21436	41548.152203127517	5
4	21439	41556.94214280978	3
4	21442	41569.843235352774	0
4	21443	41571.11213608483	2
4	21446	41577.766550756788	3
4	21451	41590.587550151903	0
4	21452	41591.0917092674	3
4	21455	41594.710928265845	2
4	21456	41599.756503828453	1
4	21459	41613.49255979063	0
4	21462	41625.52974244953	1
4	21467	41631.496048595252	1
4	21468	41633.033100201033	0
4	21475	41651.397565524581	0
4	21476	41652.675439026804	1
4	21477	41656.068888748433	2
4	21484	41672.398685629428	3
4	21485	41673.20620994324	0
4	21486	41682.406936168982	2
4	21489	41692.526698069426	0
4	21492	41703.682165683886	0
4	21493	41706.601945285024	1
4	21504	41718.410189200507	0
4	21515	41730.635511253911	2
4	21516	41731.700012739218	7
4	21517	41734.371418003361	6
4	21518	41736.650275892808	1
4	21519	41742.954891314418	0
4	21520	41743.432543145325	3
4	21525	41749.153012400569	1
4	21526	41749.291504044699	0
4	21527	41753.568264512325	4
4	21530	41755.87724460658	8
4	21539	41772.891711931104	2
4	21542	41778.119661268381	2
4	21547	41783.790494327919	2
4	21552	41789.876887224693	0
4	21553	41793.816235313841	7
4	21554	41793.823697602352	6
4	21555	41794.087981357506	2
4	21556	41796.886866741404	5
4	21557	41811.42657516871	3
4	21562	41826.408391731925	1
4	21565	41831.571858151693	0
4	21568	41833.703735106273	4
4	21571	41851.915590086161	2
4	21576	41862.732529103833	4
4	21579	41868.322832326998	1
4	21584	41874.159262658921	4
4	21585	41878.465482696315	3
4	21586	41879.796807702629	2
4	21587	41881.604060792407	0
4	21592	41890.937732008954	1
4	21597	41904.509886094046	1
4	21598	41908.441005456202	3
4	21599	41918.928461864734	2
4	21604	41930.129228274517	1
4	21607	41936.138863904389	5
4	21610	41947.965653932294	0
4	21613	41955.56208329864	0
4	21614	41966.74060649252	2
4	21619	41982.90030294547	2
4	21622	41996.146650164424	3
4	21627	42012.630728611873	0
4	21630	42017.311226715063	0
4	21635	42021.717155191728	4
4	21638	42024.278850853986	1
4	21645	42037.616360175589	0
4	21646	42041.67792427511	4
4	21647	42042.934187311882	5
4	21650	42044.35205251029	0
4	21659	42049.220262311371	7
4	21660	42050.31195595	8
4	21663	42055.459262157947	6
4	21664	42064.763022770659	5
4	21665	42065.47894389134	4
4	21666	42069.608169827137	3
4	21667	42075.981117413517	7
4	21668	42096.270869994062	1
4	21673	42100.807457592129	2
4	21676	42116.464769653774	3
4	21677	42122.056485534366	0
4	21678	42126.263314696616	1
4	21681	42128.149007770591	2
4	21686	42135.852435246343	2
4	21695	42151.837150642847	2
4	21704	42177.655782447138	2
4	21707	42184.442558082785	0
4	21708	42195.264608023029	7
4	21711	42205.177773447684	2
4	21712	42207.552506978563	8
4	21713	42216.318631949009	0
4	21714	42229.015699132072	6
4	21715	42229.477189628753	1
4	21718	42242.254676384451	3
4	21721	42250.426721260101	1
4	21722	42255.553439397821	4
4	21725	42265.97232705177	5
4	21732	42285.196231559504	1
4	21733	42291.539612325493	4
4	21738	42297.737039125304	3
4	21741	42303.477548893632	2
4	21746	42308.56192789366	0
4	21753	42317.33929200666	6
4	21756	42319.415372871417	0
4	21761	42323.450264454758	0
4	21764	42331.645996313281	5
4	21769	42340.627047318814	9
4	21772	42342.868095541772	4
4	21773	42345.227775165596	1
4	21776	42347.432205954844	2
4	21777	42352.976394790451	3
4	21778	42354.147272067939	9
4	21781	42356.278968204297	6
4	21784	42365.981077292498	1
4	21785	42367.842368251571	5
4	21788	42373.39671404597	3
4	21789	42378.919030981624	0
4	21790	42379.856985979695	8
4	21801	42392.938375430336	6
4	21802	42393.292938857127	0
4	21803	42397.549694047055	5
4	21804	42397.889302687848	4
4	21807	42402.542756569815	7
4	21808	42402.931043013896	2
4	21811	42409.104503351249	2
4	21818	42422.028179997318	1
4	21821	42424.694201461923	3
4	21822	42425.787030175914	4
4	21831	42451.648796838287	2
4	21836	42462.870393399264	7
4	21837	42468.016930668208	6
4	21838	42470.219457136148	1
4	21843	42477.469062709812	5
4	21846	42484.360036950237	5
4	21847	42487.031661657127	4
4	21848	42489.233904833763	2
4	21851	42496.739552994524	1
4	21852	42496.757745867807	0
4	21857	42499.710433739671	1
4	21858	42500.92991950247	3
4	21859	42501.658373497467	6
4	21862	42524.979712695695	8
4	21863	42528.649766580586	2
4	21864	42539.464379626884	0
4	21871	42559.180205570444	1
4	21878	42567.297535700981	1
4	21879	42567.522592565368	0
4	21880	42577.386559917031	3
4	21883	42581.623885046817	2
4	21884	42587.198584383115	4
4	21893	42596.040365999952	4
4	21898	42598.575102937009	0
4	21899	42603.138998160352	3
4	21902	42605.622936380408	2
4	21905	42612.948327192481	6
4	21906	42617.830590675544	4
4	21907	42619.121094616914	1
4	21912	42632.435382978942	5
4	21913	42644.871151998999	0
4	21920	42665.503092087288	2
4	21921	42665.773369587115	5
4	21924	42671.472081277829	1
4	21925	42672.409248835965	2
4	21928	42685.603719801255	0
4	21929	42699.383075608913	4
4	21936	42718.493456631952	2
4	21939	42726.991134940906	2
4	21942	42729.159728236847	3
4	21947	42744.947917767357	1
4	21948	42746.0877914544	5
4	21955	42750.013477657981	6
4	21960	42756.900166827707	6
4	21961	42757.170163871814	5
4	21962	42758.117201434472	2
4	21969	42766.62682642848	7
4	21970	42769.924982821396	1
4	21971	42771.352923585231	2
4	21972	42773.930159461133	0
4	21973	42774.251238271552	4
4	21976	42778.918756191305	5
4	21987	42792.573226573194	5
4	21988	42802.19069441912	6
4	21993	42803.922575925105	2
4	21994	42807.190261765635	5
4	21995	42812.793034879097	0
4	21998	42815.4271147002	4
4	22003	42827.721535705831	4
4	22004	42829.684974165947	3
4	22005	42831.565820827073	6
4	22006	42833.767161801445	7
4	22009	42836.438205951958	2
4	22014	42849.228078284639	2
4	22017	42867.285036417852	3
4	22018	42869.977146482199	0
4	22019	42875.812725898716	4
4	22020	42888.439314831291	2
4	22023	42891.348714488149	1
4	22028	42920.864515225498	1
4	22031	42930.292916667916	0
4	22038	42944.506657944419	1
4	22039	42945.944058055951	0
4	22044	42957.767079945249	1
4	22045	42965.30063103708	0
4	22054	42982.877601436136	3
4	22057	42988.319470168423	2
4	22066	42997.287129824411	0
4	22069	42999.76003058963	1
4	22070	43001.14819313972	8
4	22071	43001.357079836204	5
4	22072	43003.074691457936	9
4	22075	43006.558117304927	3
4	22084	43017.364289958688	8
4	22085	43018.912458629073	5
4	22086	43021.209364442033	9
4	22089	43026.617397104151	0
4	22096	43030.2886331993	1
4	22097	43030.639897830203	4
4	22100	43039.913151459539	0
4	22101	43040.175905069086	9
4	22102	43041.224951295947	2
4	22105	43046.583592306522	5
4	22108	43050.316602934336	7
4	22109	43052.920999870503	0
4	22110	43053.051146723589	1
4	22111	43053.938923491823	6
4	22112	43074.686911075502	2
4	22117	43092.471105479448	3
4	22118	43092.529443096736	8
4	22123	43097.017529770466	3
4	22130	43102.141483763009	0
4	22133	43106.375077480366	1
4	22136	43109.793083205653	0
4	22137	43111.747252641566	4
4	22138	43112.155638232227	1
4	22139	43115.436655059685	2
4	22140	43118.936346985689	5
4	22147	43135.617008960441	0
4	22150	43140.191769966731	3
4	22151	43150.989701561578	0
4	22152	43152.088369470918	1
4	22163	43169.154248464286	2
4	22164	43169.839017609988	3
4	22169	43181.406374645965	5
4	22170	43181.842948901577	1
4	22173	43187.685390718457	1
4	22176	43196.193084475779	3
4	22177	43196.87719558968	1

