version 2
run General-0-20171214-10:18:47-2028
attr configname General
attr datetime 20171214-10:18:47
attr experiment General
attr inifile carrefour.ini
attr iterationvars ""
attr iterationvarsf ""
attr measurement ""
attr network Carrefour
attr processid 2028
attr repetition 0
attr replication #0
attr resultdir results
attr runnumber 0
attr seedset 0
param **.lambda 111
param **.numeroCasse 5
param **.mu 200
param **.tipoSimulazione 0

vector 0 Carrefour.coda InterrivalStat:vector ETV
attr source Interarrivals
attr title "InterArrivals, vector"
vector 1 Carrefour.coda QueuingStat:vector ETV
attr source Queuing
attr title "Time in Queue, vector"
0	1	7	7
0	3	137.474425220396	130.4744252204
0	5	203.777603452834	66.303178232438
0	7	257.5493828559	53.771779403066
0	13	501.590364854375	244.04098199847
0	16	740.399805551995	238.80944069762
0	18	750.434321388452	10.034515836457
0	20	805.117209989209	54.682888600757
0	23	900.27067256899	95.153462579781
0	27	1185.91702267268	285.64635010369
0	29	1513.121560329047	327.20453765637
0	32	1611.491864586751	98.370304257704
0	34	1632.298129327406	20.806264740655
0	38	1780.455890325732	148.15776099833
0	41	1850.696807974996	70.240917649264
0	44	1916.11554759814	65.418739623144
0	48	2129.792488108461	213.67694051032
0	50	2155.383067003599	25.590578895138
0	52	2157.770203158726	2.387136155127
0	55	2188.115050596415	30.344847437689
0	58	2300.940869979147	112.82581938273
0	63	2509.417959450691	208.47708947154
0	65	2588.262492449775	78.844532999084
0	70	2933.679966513086	345.41747406331
0	72	2966.949823713723	33.269857200637
0	74	3163.667946729986	196.71812301626
0	78	3401.311967239689	237.6440205097
0	81	3570.180320527986	168.8683532883
0	85	3811.861797653827	241.68147712584
0	87	3836.033069596898	24.171271943071
0	89	3841.35558478484	5.322515187942
0	91	3870.618173093023	29.262588308183
0	95	3930.044992630876	59.426819537853
0	97	3930.676945255574	0.631952624698
0	99	3951.484634330393	20.807689074819
0	102	3993.127559151857	41.642924821464
0	104	3997.033963784237	3.90640463238
0	110	4085.232904623564	88.198940839327
0	116	4549.731517809024	464.49861318546
0	118	4824.692963955766	274.96144614674
0	121	5051.002535100324	226.30957114456
0	123	5094.701388948427	43.698853848103
0	125	5109.469685484499	14.768296536072
0	130	5247.697220472489	138.22753498799
0	133	5300.118053452791	52.420832980302
0	136	5383.157617021126	83.039563568335
0	139	5463.639862088181	80.482245067055
0	143	5539.903161476545	76.263299388364
0	145	5570.974090446805	31.07092897026
0	148	5648.289544214308	77.315453767503
0	150	5706.303422520516	58.013878306208
0	153	5727.285073337648	20.981650817132
0	155	5733.700228364747	6.415155027099
0	157	5769.454486717598	35.754258352851
0	159	5794.331352197082	24.876865479484
0	163	5834.277992487211	39.946640290129
0	164	5879.288281748509	45.010289261298
0	165	5886.690015945866	7.401734197357
0	176	6051.013649365624	164.32363341976
0	181	6091.109076872722	40.095427507098
0	184	6250.352901227727	159.243824355
0	188	6618.094768124774	367.74186689705
0	190	6659.786163913443	41.691395788669
0	192	6664.443774678328	4.657610764885
0	196	6745.559541224043	81.115766545715
0	198	6859.335105210785	113.77556398674
0	203	6951.072449608599	91.737344397814
0	207	7263.079823019439	312.00737341084
0	209	7279.193991890204	16.114168870765
0	212	7387.879567338549	108.68557544834
0	214	7455.476827917038	67.597260578489
0	218	7649.479042276531	194.00221435949
0	220	7661.91114169206	12.432099415529
0	222	7671.579348036989	9.668206344929
0	225	7737.86658555624	66.287237519251
0	227	7779.739879364563	41.873293808323
0	230	7821.354374584479	41.614495219916
0	232	7838.06665450697	16.712279922491
0	237	7904.100717469479	66.034062962509
0	244	8288.891871378027	384.79115390855
0	247	8381.897347280584	93.005475902557
0	249	8419.463795909004	37.56644862842
0	253	8602.636918388748	183.17312247974
0	255	8722.086470744187	119.44955235544
0	257	8752.808374790814	30.721904046627
0	260	8830.509034055828	77.700659265014
0	262	8832.26413244365	1.755098387822
0	266	8974.573005152516	142.30887270887
0	268	9071.840017386926	97.26701223441
0	272	9247.972376700228	176.1323593133
0	276	9563.170989738941	315.19861303871
0	279	9835.995004134801	272.82401439586
0	281	9879.552535945943	43.557531811142
0	283	9933.197245881869	53.644709935926
0	286	10017.763018221244	84.565772339375
0	288	10033.636425751337	15.873407530093
0	291	10106.882882247688	73.246456496351
0	294	10130.662353007918	23.77947076023
0	296	10161.023790558112	30.361437550194
0	300	10170.64582217605	9.622031617938
0	305	10221.836009504458	51.190187328408
0	309	10282.391068864745	60.555059360287
0	313	10306.441400823711	24.050331958966
0	317	10346.79708057461	40.355679750899
0	320	10543.341924374959	196.54484380035
0	322	10605.852681281759	62.5107569068
0	324	10606.917606903804	1.064925622045
0	327	10616.744966661742	9.827359757938
0	332	10828.257136474362	211.51216981262
0	335	11008.621435605559	180.3642991312
0	337	11022.722799878275	14.101364272716
0	341	11180.155085296342	157.43228541807
0	345	11768.206224047568	588.05113875123
0	347	11880.802407213783	112.59618316621
0	350	11892.175053877629	11.372646663846
0	352	11895.07695113975	2.901897262121
0	357	11972.910124164603	77.833173024853
0	359	11987.288910293155	14.378786128552
0	362	12017.255212429358	29.966302136203
0	365	12099.11178718273	81.856574753372
0	369	12456.531739019183	357.41995183645
0	372	12656.525742833046	199.99400381386
0	374	12716.827769909453	60.302027076407
0	376	12724.654962529851	7.827192620398
0	381	13077.846262745021	353.19130021517
0	384	13278.761334516702	200.91507177168
0	386	13288.01807947135	9.256744954648
0	388	13379.509439291537	91.491359820187
0	390	13418.47534468842	38.965905396883
0	393	13547.679583155274	129.20423846685
0	396	13586.836562444723	39.156979289449
0	399	13774.215117312098	187.37855486737
0	402	13858.559377944321	84.344260632223
0	405	13863.400904481476	4.841526537155
0	409	14000.326905664953	136.92600118348
0	412	14064.342407245672	64.015501580719
0	415	14184.155338590344	119.81293134467
0	417	14187.967771876583	3.812433286239
0	419	14193.288151018451	5.320379141868
0	425	14412.808781207102	219.52063018865
0	427	14533.212639514266	120.40385830716
0	430	14568.725219523386	35.51258000912
0	432	14574.434291679813	5.709072156427
0	434	14587.295801881063	12.86151020125
0	436	14631.669491376168	44.373689495105
0	444	14767.924536805864	136.2550454297
0	448	14876.575622396259	108.65108559039
0	451	14953.880381265449	77.30475886919
0	454	15070.508920049292	116.62853878384
0	456	15112.469812177144	41.960892127852
0	459	15129.804139765458	17.334327588314
0	462	15383.646112077615	253.84197231216
0	464	15392.04954490777	8.403432830155
0	466	15420.347914332405	28.298369424635
0	468	15459.881662008904	39.533747676499
0	472	15528.640579051912	68.758917043008
0	476	15559.528107424913	30.887528373001
0	479	15618.935478482932	59.407371058019
0	482	15843.793609198981	224.85813071605
0	485	15927.46269804622	83.669088847239
0	489	16184.262635346647	256.79993730043
0	491	16218.997215197817	34.73457985117
0	493	16290.741684252511	71.744469054694
0	498	16386.433955932294	95.692271679783
0	502	16493.66550477815	107.23154884586
0	504	16615.986120946329	122.32061616818
0	507	16652.599020517183	36.612899570854
0	510	16757.468858068877	104.86983755169
0	512	16788.144304720584	30.675446651707
0	515	16999.14784204362	211.00353732304
0	517	17009.458180437731	10.310338394111
0	519	17073.886149658989	64.427969221258
0	525	17227.862335590196	153.97618593121
0	527	17307.515891116028	79.653555525832
0	529	17317.633010998866	10.117119882838
0	532	17398.668278227522	81.035267228656
0	535	17423.512910302918	24.844632075396
0	541	17629.405798058485	205.89288775557
0	543	17668.312993117348	38.907195058863
0	545	17707.236913961797	38.923920844449
0	547	17707.746254917315	0.509340955518
0	550	17767.513671969679	59.767417052364
0	555	17975.700577350455	208.18690538078
0	558	18156.265891160797	180.56531381034
0	562	18584.234337958058	427.96844679726
0	565	18662.376351846305	78.142013888247
0	567	18884.87952060322	222.50316875691
0	571	19360.835290511912	475.95576990869
0	573	19531.750999107739	170.91570859583
0	577	19758.797815724749	227.04681661701
0	580	19903.266689173444	144.4688734487
0	582	20071.989036048712	168.72234687527
0	585	20201.801683577569	129.81264752886
0	587	20215.392141158791	13.590457581222
0	589	20402.219020502944	186.82687934415
0	592	20482.655047660303	80.436027157359
0	594	20485.983351477855	3.328303817552
0	596	20546.297815731571	60.314464253716
0	597	20551.321548208453	5.023732476882
0	601	20677.662129986108	126.34058177766
0	602	20715.895716781617	38.233586795509
0	603	20728.302375721431	12.406658939814
0	604	20765.850291793473	37.547916072042
0	620	20970.017424540281	204.16713274681
0	624	21077.848687406764	107.83126286648
0	630	21146.530026775961	68.681339369197
0	635	21297.57053385328	151.04050707732
0	638	21417.891582306656	120.32104845338
0	642	21504.008957741977	86.117375435321
0	644	21606.896379030416	102.88742128844
0	647	21688.076766839101	81.180387808685
0	649	21694.937139049377	6.860372210276
0	651	21713.869595744652	18.932456695275
0	654	21792.714416532161	78.844820787509
0	656	21828.577962228959	35.863545696798
0	660	22003.430805376044	174.85284314708
0	662	22019.745951434694	16.31514605865
0	665	22064.108676324782	44.362724890088
0	668	22192.020267934665	127.91159160988
0	671	22250.475123997718	58.454856063053
0	678	22380.314591694155	129.83946769644
0	680	22390.285226207396	9.970634513241
0	684	22538.833524331598	148.5482981242
0	686	22541.334948151565	2.501423819967
0	688	22612.443743854236	71.108795702671
0	692	22778.156099577993	165.71235572376
0	694	22867.479306119535	89.323206541542
0	696	22886.847378322072	19.368072202537
0	698	22895.143005045987	8.295626723915
0	700	22911.213057909628	16.070052863641
0	704	22938.283168298307	27.070110388679
0	708	22978.493004603347	40.20983630504
0	709	23044.483538344458	65.990533741111
0	719	23264.981449190074	220.49791084562
0	721	23336.676580792794	71.69513160272
0	725	23566.978458381474	230.30187758868
0	728	23616.449564890393	49.471106508919
0	732	23842.742785789895	226.2932208995
0	734	23979.016593516214	136.27380772632
0	737	24063.835715190223	84.819121674009
0	740	24078.762615449476	14.926900259253
0	742	24079.036008664233	0.273393214757
0	744	24103.297998875957	24.261990211724
0	747	24308.800509397819	205.50251052186
0	751	24350.620889548675	41.820380150856
0	757	24546.736259261709	196.11536971303
0	759	24650.899493634815	104.16323437311
0	762	24836.169190030239	185.26969639542
0	765	24907.760761173568	71.591571143329
0	767	24925.223798796417	17.463037622849
0	770	24930.428206578466	5.204407782049
0	773	25077.965916139612	147.53770956115
0	777	25160.742329336596	82.776413196984
0	779	25173.116009817452	12.373680480856
0	783	25269.552757664109	96.436747846657
0	786	25408.261497449909	138.7087397858
0	788	25418.014476904938	9.752979455029
0	791	25439.542026377755	21.527549472817
0	793	25446.318853423338	6.776827045583
0	796	25562.041956607985	115.72310318465
0	802	25836.216434457259	274.17447784927
0	804	25844.416645125792	8.200210668533
0	806	25878.441662532056	34.025017406264
0	809	25976.63608723124	98.194424699184
0	814	26391.77705129673	415.14096406549
0	816	26686.203149120685	294.42609782395
0	818	26730.962565855654	44.759416734969
0	820	26813.373454365025	82.410888509371
0	822	26826.288544773837	12.915090408812
0	828	26975.881796896909	149.59325212307
0	831	27195.773721643401	219.89192474649
0	834	27303.063544593133	107.28982294973
0	837	27354.116547659836	51.053003066703
0	841	27450.257130829758	96.140583169922
0	843	27504.058435378186	53.801304548428
0	847	27813.262538327357	309.20410294917
0	849	27902.781043891675	89.518505564318
0	853	28272.956155744947	370.17511185327
0	856	28454.435425166034	181.47926942109
0	858	28545.446303394484	91.01087822845
0	861	28704.909926814155	159.46362341967
0	864	28767.601682826513	62.691756012358
0	866	28785.075310062356	17.473627235843
0	868	28927.470723838097	142.39541377574
0	873	29295.424966297048	367.95424245895
0	877	29537.803916193732	242.37894989668
0	880	29758.208358710854	220.40444251712
0	882	29801.463728330231	43.255369619377
0	884	29951.483956543012	150.02022821278
0	887	30000.298631620309	48.814675077297
0	890	30098.70034115993	98.401709539621
0	893	30195.985101396442	97.284760236512
0	897	30438.659930055509	242.67482865907
0	899	30442.754469134057	4.094539078548
0	901	30474.555346485308	31.800877351251
0	903	30528.33303757239	53.777691087082
0	908	30598.721230875588	70.388193303198
0	911	30651.68345566889	52.962224793302
0	915	30790.760726895043	139.07727122615
0	918	30885.458689614947	94.697962719904
0	922	31033.16442981752	147.70574020257
0	925	31268.501997176381	235.33756735886
0	927	31352.22414608475	83.722148908369
0	929	31406.454453519239	54.230307434489
0	932	31456.181550466159	49.72709694692
0	934	31484.278272667512	28.096722201353
0	939	31555.658001712567	71.379729045055
0	943	31719.346571285662	163.6885695731
0	945	31744.247136874789	24.900565589127
0	947	31889.323807418923	145.07667054413
0	949	31901.454018521352	12.130211102429
0	951	31912.712843337399	11.258824816047
0	955	31961.297108877029	48.58426553963
0	957	31977.716316841937	16.419207964908
0	959	32004.565191978116	26.848875136179
0	965	32165.143345790479	160.57815381236
0	969	32191.408560201589	26.26521441111
0	971	32237.229681994092	45.821121792503
0	977	32699.184655237897	461.95497324381
0	979	32828.622762380512	129.43810714261
0	982	32928.500638437653	99.877876057141
0	985	32964.841563439718	36.340925002065
0	987	33002.128446575771	37.286883136053
0	991	33228.495457106471	226.3670105307
0	993	33230.508408726793	2.012951620322
0	996	33303.097639553159	72.589230826366
0	999	33389.664262036124	86.566622482965
0	1001	33408.453267456875	18.789005420751
0	1006	33669.907227134287	261.45395967741
0	1010	33777.524271927836	107.61704479355
0	1012	33884.664034744027	107.13976281619
0	1014	33902.036158607818	17.372123863791
0	1017	34050.471233682154	148.43507507434
0	1020	34136.657488256104	86.18625457395
0	1023	34262.072255661369	125.41476740526
0	1026	34324.08065777751	62.008402116141
0	1029	34444.108770930371	120.02811315286
0	1032	34468.868390355883	24.759619425512
0	1034	34489.212594678461	20.344204322578
0	1036	34502.638252630201	13.42565795174
0	1040	34546.273020163021	43.63476753282
0	1042	34598.437980188515	52.164960025494
0	1044	34628.991762140487	30.553781951972
0	1045	34629.78788751957	0.796125379083
0	1046	34631.642182928874	1.854295409304
0	1047	34634.648936428198	3.006753499324
0	1051	34674.299581869404	39.650645441206
0	1055	34678.383049849669	4.083467980265
0	1065	34796.235523942431	117.85247409276
0	1069	34829.556188791315	33.320664848884
0	1076	34883.250600366538	53.694411575223
0	1077	34915.056393754346	31.805793387808
0	1086	34974.218448211362	59.162054457016
0	1091	35245.184308503253	270.96586029189
0	1094	35264.324005693612	19.139697190359
0	1096	35296.39983863387	32.075832940258
0	1100	35465.380147886072	168.9803092522
0	1102	35496.48084423725	31.100696351178
0	1104	35599.594776751136	103.11393251389
0	1106	35608.845650799804	9.250874048668
0	1111	35781.480722381208	172.6350715814
0	1115	35957.050772690877	175.57005030967
0	1117	36071.923004613169	114.87223192229
0	1122	36466.724502216776	394.80149760361
0	1124	36494.067263208835	27.342760992059
0	1127	36523.951659757255	29.88439654842
0	1131	36735.259954663591	211.30829490634
0	1134	36829.4664034446	94.206448781009
0	1137	36933.685752123406	104.21934867881
0	1139	36974.108178086772	40.422425963366
0	1142	37064.358360006358	90.250181919586
0	1144	37126.774788642691	62.416428636333
0	1148	37343.260112909766	216.48532426707
0	1152	37791.436389301374	448.17627639161
0	1154	37793.64526168835	2.208872386976
0	1157	37812.032366561806	18.387104873456
0	1159	37853.539105751504	41.506739189698
0	1162	37957.034238815299	103.49513306379
0	1167	38236.319712009311	279.28547319401
0	1169	38281.820006027329	45.500294018018
0	1173	38769.691019973788	487.87101394646
0	1176	39065.059275620109	295.36825564632
0	1178	39080.005761084506	14.946485464397
0	1180	39169.78701273384	89.781251649334
0	1184	39227.613262452724	57.826249718884
0	1186	39250.772222369468	23.158959916744
0	1188	39283.848029032351	33.075806662883
0	1191	39353.011202364571	69.16317333222
0	1197	39809.480110295059	456.46890793049
0	1199	40036.308051960814	226.82794166575
0	1201	40085.379941590532	49.071889629718
0	1204	40183.370773155619	97.990831565087
0	1207	40277.828595480372	94.457822324753
0	1211	40387.314733772804	109.48613829243
0	1215	40754.142076728055	366.82734295525
0	1217	40820.835415396665	66.69333866861
0	1220	41113.598203078204	292.76278768154
0	1222	41147.563141352186	33.964938273982
0	1224	41159.204043584608	11.640902232422
0	1228	41410.379515666002	251.17547208139
0	1230	41433.629178183701	23.249662517699
0	1232	41441.925992925813	8.296814742112
0	1234	41494.253531348897	52.327538423084
0	1239	41521.681453719733	27.427922370836
0	1246	41761.779893131052	240.09843941132
0	1248	42001.409561813165	239.62966868211
0	1250	42022.328293061065	20.9187312479
0	1253	42122.922058638055	100.59376557699
0	1255	42124.476724580682	1.554665942627
0	1258	42349.23929084918	224.7625662685
0	1263	42419.907757595373	70.668466746193
0	1267	42468.054745446697	48.146987851324
0	1269	42484.651823437647	16.59707799095
0	1273	42823.203436802478	338.55161336483
0	1276	43141.71402103079	318.51058422831
0	1278	43170.877702057901	29.163681027111
0	1281	43422.698183454749	251.82048139685
0	1285	43614.030828827948	191.3326453732
0	1287	43615.238048406853	1.207219578905
0	1290	43662.027799682622	46.789751275769
0	1294	44199.02363552102	536.9958358384
0	1296	44283.163617101789	84.139981580769
0	1298	44382.892881983064	99.729264881275
0	1303	44664.394945040786	281.50206305772
0	1306	44880.925023353335	216.53007831255
0	1308	44887.51998700074	6.594963647405
0	1310	44926.894793801053	39.374806800313
0	1313	45118.417668295752	191.5228744947
0	1315	45144.098384086846	25.680715791094
0	1321	45452.741820456876	308.64343637003
0	1324	45549.947808579627	97.205988122751
0	1327	45671.138693592276	121.19088501265
0	1330	45703.975689629611	32.836996037335
0	1332	45758.721108898867	54.745419269256
0	1334	45768.30735606319	9.586247164323
0	1337	45778.171261511057	9.863905447867
0	1341	45926.323328488047	148.15206697699
0	1344	45979.47014011471	53.146811626663
0	1347	46005.461338323045	25.991198208335
0	1350	46054.08933918034	48.628000857295
0	1354	46361.619515808887	307.53017662855
0	1356	46441.502451342703	79.882935533816
0	1359	46455.70909852525	14.206647182547
0	1361	46508.933861002859	53.224762477609
0	1363	46524.87219135571	15.938330352851
0	1366	46576.663692163144	51.791500807434
0	1368	46593.010188189707	16.346496026563
0	1373	46819.654708056223	226.64451986652
0	1376	46866.655345100261	47.000637044038
0	1380	46983.179464317158	116.5241192169
0	1382	47141.26370753971	158.08424322255
0	1385	47179.378512719643	38.114805179933
0	1387	47277.94411202003	98.565599300387
0	1389	47291.900460306103	13.956348286073
0	1394	47384.001528788955	92.101068482852
0	1396	47415.246341053054	31.244812264099
0	1398	47429.63104108221	14.384700029156
0	1401	47464.822424701587	35.191383619377
0	1404	47478.32018552543	13.497760823843
0	1408	47590.79545905956	112.47527353413
0	1414	48133.890653460036	543.09519440048
0	1416	48166.392733487259	32.502080027223
0	1420	48214.765603049787	48.372869562528
0	1422	48218.34523181672	3.579628766933
0	1425	48274.401721972602	56.056490155882
0	1429	48362.990750884844	88.589028912242
0	1431	48697.438079293378	334.44732840853
0	1433	48714.675758546507	17.237679253129
0	1436	48829.705154342715	115.02939579621
0	1440	48933.095045538893	103.38989119618
0	1443	49186.075228921886	252.98018338299
0	1446	49267.664234317422	81.589005395536
0	1449	49287.489163016003	19.824928698581
0	1451	49330.699988203989	43.210825187986
0	1454	49395.954877394119	65.25488919013
0	1456	49411.640225615731	15.685348221612
0	1461	49521.507598353097	109.86737273737
0	1463	49566.577941426509	45.070343073412
0	1467	50132.313312135324	565.73537070882
0	1470	50232.001111597033	99.687799461709
0	1473	50317.673177858253	85.67206626122
0	1476	50575.050016786924	257.37683892867
0	1479	50609.514538439434	34.46452165251
0	1482	50627.659627363079	18.145088923645
0	1485	50676.826455583919	49.16682822084
0	1488	50690.355490239977	13.529034656058
0	1492	50826.745249603569	136.38975936359
0	1494	50839.128361692963	12.383112089394
0	1497	50876.230387366596	37.102025673633
0	1501	51000.771100990009	124.54071362341
0	1503	51009.168045948047	8.396944958038
0	1506	51100.709387898629	91.541341950582
0	1509	51302.609066588711	201.89967869008
0	1511	51333.723479522135	31.114412933424
0	1514	51406.070079620185	72.34660009805
0	1516	51427.34429659859	21.274216978405
0	1518	51476.865508862381	49.521212263791
0	1524	51870.220549758594	393.35504089621
0	1528	51983.444441071125	113.22389131253
0	1530	51988.705107654628	5.260666583503
0	1534	52329.98123075072	341.27612309609
0	1536	52368.735430789446	38.754200038726
0	1538	52421.201697148513	52.466266359067
0	1542	52638.011680665961	216.80998351745
0	1544	52734.389441032016	96.377760366055
0	1548	52845.986958150135	111.59751711812
0	1551	52886.684990956282	40.698032806147
0	1555	53192.041300600243	305.35630964396
0	1557	53217.232545138684	25.191244538441
0	1561	53496.236477960457	279.00393282177
0	1563	53533.553600482338	37.317122521881
0	1565	53560.273987530823	26.720387048485
0	1569	53728.030321088264	167.75633355744
0	1571	53756.913685462385	28.883364374121
0	1573	53810.065494744718	53.151809282333
0	1575	53812.91384237511	2.848347630392
0	1579	54019.402437279213	206.4885949041
0	1585	54686.254719693496	666.85228241428
0	1587	54724.601920006391	38.347200312895
0	1590	55104.44654456284	379.84462455645
0	1594	55163.628044952018	59.181500389178
0	1596	55224.787402141064	61.159357189046
0	1600	55254.352717562681	29.565315421617
0	1603	55376.196631141879	121.8439135792
0	1605	55407.046964071503	30.850332929624
0	1608	55454.25305541016	47.206091338657
0	1610	55511.021255046101	56.768199635941
0	1612	55519.962639642855	8.941384596754
0	1614	55527.754834635478	7.792194992623
0	1619	55861.661847615674	333.9070129802
0	1622	55998.203833008916	136.54198539324
0	1627	56274.198563817655	275.99473080874
0	1630	56400.78401421757	126.58545039992
0	1632	56560.658176733718	159.87416251615
0	1634	56627.447005707755	66.788828974037
0	1639	57105.939624033529	478.49261832577
0	1641	57220.988039022758	115.04841498923
0	1644	57275.112418369486	54.124379346728
0	1647	57310.76937082746	35.656952457974
0	1649	57327.128306485149	16.358935657689
0	1651	57339.964376922981	12.836070437832
0	1654	57376.588541469612	36.624164546631
0	1660	57789.222723142301	412.63418167269
0	1662	57827.67326538567	38.450542243369
0	1664	57829.412370503459	1.739105117789
0	1666	57849.851915214599	20.43954471114
0	1672	58119.600630083591	269.74871486899
0	1674	58147.948569961329	28.347939877738
0	1677	58227.391428372263	79.442858410934
0	1681	58382.801284147016	155.40985577475
0	1683	58415.792252579822	32.990968432806
0	1687	59523.939621511818	1108.147368932
0	1689	59728.135659241484	204.19603772967
0	1691	59763.686227457754	35.55056821627
0	1694	59959.463608656883	195.77738119913
0	1696	59986.501882386486	27.038273729603
0	1699	60051.185034170153	64.683151783667
0	1703	60129.377629930091	78.192595759938
0	1707	60407.876217486652	278.49858755656
0	1709	60429.415954290504	21.539736803852
0	1713	60730.878284109507	301.462329819
0	1716	60774.186822962952	43.308538853445
0	1719	60956.616631738044	182.42980877509
0	1721	61001.310749863559	44.694118125515
0	1723	61064.685029737893	63.374279874334
0	1728	61243.660300893163	178.97527115527
0	1731	61430.373786568959	186.7134856758
0	1733	61524.59376463127	94.219978062311
0	1736	61578.302903968914	53.709139337644
0	1741	61838.271603108612	259.9686991397
0	1743	61882.86607409919	44.594470990578
0	1746	61957.821403671759	74.955329572569
0	1748	62020.809421679691	62.988018007932
0	1750	62025.23786778131	4.428446101619
0	1752	62031.641712461952	6.403844680642
0	1754	62069.93512896862	38.293416506668
0	1755	62089.181016343764	19.245887375144
0	1764	62192.645294946043	103.46427860228
0	1766	62212.251255774225	19.605960828182
0	1769	62423.61575291969	211.36449714547
0	1774	62624.210992886724	200.59523996703
0	1779	62751.639897483251	127.42890459653
0	1781	62758.116743629717	6.476846146466
0	1784	62909.638023532879	151.52127990316
0	1787	62981.618332247368	71.980308714489
0	1791	63114.748892562498	133.13056031513
0	1793	63184.163644306126	69.414751743628
0	1795	63232.968839632146	48.80519532602
0	1798	63309.735945046737	76.767105414591
0	1802	63325.418893490014	15.682948443277
0	1804	63336.635443882616	11.216550392602
0	1807	63402.440312535626	65.80486865301
0	1810	63481.835923114395	79.395610578769
0	1812	63520.661796380769	38.825873266374
0	1816	63633.612285883006	112.95048950224
0	1818	63657.476495072434	23.864209189428
0	1820	63771.693937928344	114.21744285591
0	1826	63928.091473876879	156.39753594853
0	1830	64025.425759242075	97.334285365196
0	1832	64042.494804893197	17.069045651122
0	1835	64258.943351248012	216.44854635481
0	1837	64262.815480542479	3.872129294467
0	1839	64408.823717800331	146.00823725785
0	1841	64521.5321832225	112.70846542217
0	1844	64601.723252374385	80.191069151885
0	1849	64728.340423696037	126.61717132165
0	1852	64952.549726761089	224.20930306505
0	1855	65026.769185918168	74.219459157079
0	1858	65072.361546808813	45.592360890645
0	1862	65383.472574334298	311.11102752548
0	1866	65548.216386782266	164.74381244797
0	1869	65757.19591405114	208.97952726887
0	1872	65890.138755462113	132.94284141097
0	1874	65890.64076406739	0.502008605277
0	1877	65986.33030654166	95.68954247427
0	1881	66217.393865211966	231.06355867031
0	1884	66306.679626007732	89.285760795766
0	1886	66629.456754001443	322.77712799371
0	1889	66839.48925198984	210.0324979884
0	1892	67045.405323159014	205.91607116917
0	1896	67083.213258297732	37.807935138718
0	1898	67165.563037101987	82.349778804255
0	1900	67255.235612622996	89.672575521009
0	1903	67300.841400755231	45.605788132235
0	1905	67306.393051088883	5.551650333652
0	1907	67315.021642369453	8.62859128057
0	1912	67534.86658010616	219.84493773671
0	1916	67612.879488535774	78.012908429614
0	1920	67865.962875822594	253.08338728682
0	1923	67944.641142380994	78.6782665584
0	1925	67973.49170047796	28.850558096966
0	1927	67988.534104572158	15.042404094198
0	1932	68461.453281464422	472.91917689226
0	1934	68486.317022488104	24.863741023682
0	1936	68586.350951189453	100.03392870135
0	1941	68878.827242181319	292.47629099187
0	1944	68938.937219386737	60.109977205418
0	1947	69286.760714160103	347.82349477337
0	1950	69366.863782341625	80.103068181522
0	1953	69591.068083362446	224.20430102082
0	1956	70187.395432211312	596.32734884887
0	1958	70286.437266368573	99.041834157261
0	1960	70441.164810245465	154.72754387689
0	1963	70480.266478805223	39.101668559758
0	1966	70552.502416755896	72.235937950673
0	1968	70643.269675553698	90.767258797802
0	1970	70719.876389940307	76.606714386609
0	1976	70863.145540966336	143.26915102603
0	1978	70922.708185021527	59.562644055191
0	1981	71239.684328718328	316.9761436968
0	1986	71711.750204710145	472.06587599182
0	1988	71712.161750716204	0.411546006059
0	1992	72001.408973130391	289.24722241419
0	1994	72014.101918639484	12.692945509093
0	1998	72200.800460675082	186.6985420356
0	2000	72270.887005248124	70.086544573042
0	2004	72463.226623750423	192.3396185023
0	2006	72464.726334016839	1.499710266416
0	2008	72582.447876763282	117.72154274644
0	2013	72803.163793925296	220.71591716201
0	2015	72827.695675795199	24.531881869903
0	2017	72859.339281755787	31.643605960588
0	2020	72892.203994691625	32.864712935838
0	2023	72941.394900801157	49.190906109532
0	2027	73129.008558141858	187.6136573407
0	2030	73294.297987046009	165.28942890415
0	2033	73335.102543728911	40.804556682902
0	2036	73421.029170063859	85.926626334948
0	2040	73708.021870372908	286.99270030905
0	2042	73761.478401209836	53.456530836928
0	2046	74094.036830041891	332.55842883205
0	2048	74239.178034269521	145.14120422763
0	2050	74248.199272059818	9.021237790297
0	2054	74334.082737917463	85.883465857645
0	2056	74444.394984526681	110.31224660922
0	2058	74480.925973484955	36.530988958274
0	2063	74747.383795604733	266.45782211978
0	2065	74791.929897971372	44.546102366639
0	2069	74948.16529512548	156.23539715411
0	2072	75162.620364541818	214.45506941634
0	2076	75389.549259427299	226.92889488548
0	2079	75531.677876727705	142.12861730041
0	2081	75543.74139079987	12.063514072165
0	2083	75567.105005715838	23.363614915968
0	2086	75797.610750130369	230.50574441453
0	2088	75840.170050825988	42.559300695619
0	2093	75917.722840320794	77.552789494806
0	2095	75996.418893216459	78.696052895665
0	2097	76010.146523042647	13.727629826188
0	2100	76028.374355890551	18.227832847904
0	2104	76285.571615510041	257.19725961949
0	2106	76330.926526207843	45.354910697802
0	2110	76456.36585482433	125.43932861649
0	2112	76467.70508978084	11.33923495651
0	2118	77052.068497275178	584.36340749434
0	2121	77323.603674869245	271.53517759407
0	2123	77356.444076843544	32.840401974299
0	2125	77358.881295362931	2.437218519387
0	2127	77380.000766414985	21.119471052054
0	2129	77410.888661579816	30.887895164831
0	2132	77433.677109051288	22.788447471472
0	2134	77435.068834695462	1.391725644174
0	2139	77541.217832327883	106.14899763242
0	2145	77664.796695916475	123.57886358859
0	2148	77781.607732732841	116.81103681637
0	2150	77896.581215801843	114.973483069
0	2153	77937.75783706557	41.176621263727
0	2155	77964.306295639807	26.548458574237
0	2157	77987.594078371804	23.287782731997
0	2164	78219.693891326418	232.09981295461
0	2167	78228.921211864404	9.227320537986
0	2170	78385.913231522284	156.99201965788
0	2173	78576.824314897976	190.91108337569
0	2175	78612.066515209197	35.242200311221
0	2178	78733.287960566042	121.22144535684
0	2182	78980.369743289386	247.08178272334
0	2184	79031.490504736677	51.120761447291
0	2186	79061.385477679812	29.894972943135
0	2188	79119.638491219101	58.253013539289
0	2190	79149.7608908716	30.122399652499
0	2195	79387.428687280137	237.66779640854
0	2199	79403.880503632137	16.451816352
0	2202	79476.173133710772	72.292630078635
0	2204	79491.745535394479	15.572401683707
0	2206	79564.548154008648	72.802618614169
0	2210	79852.833195554388	288.28504154574
0	2213	80022.226608356381	169.39341280199
0	2215	80096.609594368371	74.38298601199
0	2218	80135.165240060726	38.555645692355
0	2220	80190.127567708954	54.962327648228
0	2222	80236.530153293076	46.402585584122
0	2223	80264.377411316838	27.847258023762
0	2234	80411.987176908575	147.60976559174
0	2237	80543.549517639101	131.56234073053
0	2239	80591.091355257766	47.541837618665
0	2244	80813.559486849955	222.46813159219
0	2247	80907.593033655914	94.033546805959
0	2249	80910.291310135291	2.698276479377
0	2253	81031.181250994737	120.88994085945
0	2256	81186.017901038944	154.83665004421
0	2258	81198.768629664181	12.750728625237
0	2260	81384.736826513394	185.96819684921
0	2262	81417.527778503985	32.790951990591
0	2266	81442.138771797815	24.61099329383
0	2270	81580.218818958569	138.08004716075
0	2273	81628.66795299782	48.449134039251
0	2276	81716.13169593054	87.46374293272
0	2278	81935.721736106944	219.5900401764
0	2280	82086.076587394874	150.35485128793
0	2282	82090.214022111366	4.137434716492
0	2286	82249.088119208009	158.87409709664
0	2291	82425.970319273117	176.88220006511
0	2293	82542.756943880766	116.78662460765
0	2298	82696.923821972147	154.16687809138
0	2301	82764.988681709157	68.06485973701
0	2303	82775.40944296273	10.420761253573
0	2305	82841.874219647456	66.464776684726
0	2307	82898.570582860536	56.69636321308
0	2311	82957.796772183235	59.226189322699
0	2314	83022.579991858849	64.783219675614
0	2317	83223.246372330463	200.66638047161
0	2319	83340.049169070832	116.80279674037
0	2323	83454.761312189798	114.71214311897
0	2328	83570.314130156362	115.55281796656
0	2331	83621.475058058784	51.160927902422
0	2334	83739.231319531126	117.75626147234
0	2337	83859.319739250054	120.08841971893
0	2339	83974.35496697065	115.0352277206
0	2341	84040.459569756713	66.104602786063
0	2343	84073.627345675206	33.167775918493
0	2345	84164.720034880819	91.092689205613
0	2349	84269.064045333695	104.34401045288
0	2351	84274.254040087847	5.189994754152
0	2354	84311.804171959243	37.550131871396
0	2358	84408.60606144136	96.801889482117
0	2362	84515.963604139329	107.35754269797
0	2366	84536.387193639346	20.423589500017
0	2368	84609.139886304729	72.752692665383
0	2370	84721.51408979671	112.37420349198
0	2375	85110.979229899172	389.46514010246
0	2377	85202.192024870806	91.212794971634
0	2379	85218.775137275893	16.583112405087
0	2382	85233.39601948555	14.620882209657
0	2385	85263.055976292559	29.659956807009
0	2387	85284.055804189534	20.999827896975
0	2389	85326.843831848653	42.788027659119
0	2396	85414.895583219012	88.051751370359
0	2399	85706.333072840532	291.43748962152
0	2401	85710.228280632682	3.89520779215
0	2403	85750.183549149353	39.955268516671
0	2405	85762.561423395848	12.377874246495
0	2410	85857.866132055413	95.304708659565
0	2417	86186.979485579501	329.11335352409
0	2419	86428.694727705976	241.71524212648
0	2422	86486.444965292333	57.750237586357
0	2424	86657.987106631384	171.54214133905
0	2428	86695.092939145541	37.105832514157
0	2431	86716.791472246139	21.698533100598
0	2434	86770.875493825684	54.084021579545
0	2438	86911.900758914457	141.02526508877
0	2440	87166.996517077986	255.09575816353
0	2444	87219.629703765656	52.63318668767
0	2446	87413.968836735365	194.33913296971
0	2449	87479.497827159653	65.528990424288
0	2451	87549.320828555317	69.823001395664
0	2453	87558.520895939751	9.200067384434
0	2456	87593.337488352071	34.81659241232
0	2459	87694.634086171425	101.29659781935
0	2461	87717.123874200433	22.489788029008
0	2463	87727.142574954087	10.018700753654
0	2470	87976.281631423483	249.1390564694
0	2472	88155.570841044614	179.28920962113
0	2475	88271.612234590227	116.04139354561
0	2478	88283.566324406232	11.954089816005
0	2481	88316.042717292181	32.476392885949
0	2484	88341.333662064436	25.290944772255
0	2490	88653.590639950091	312.25697788565
0	2492	88679.850447235156	26.259807285065
0	2496	88743.371884195968	63.521436960812
0	2498	88904.720760533507	161.34887633754
0	2502	89390.988499238876	486.26773870537
0	2505	89486.773433388327	95.784934149451
0	2508	89519.715750559401	32.942317171074
0	2510	89551.183222784908	31.467472225507
0	2514	89758.885220919272	207.70199813436
0	2516	89786.538580378166	27.653359458894
0	2519	89919.229410708468	132.6908303303
0	2523	89972.757651062558	53.52824035409
0	2525	89989.764584523334	17.006933460776
0	2527	90048.615525922233	58.850941398899
0	2530	90280.128351176601	231.51282525437
0	2535	90497.5361996402	217.4078484636
0	2537	90534.061011399409	36.524811759209
0	2539	90546.541364646075	12.480353246666
0	2543	90659.821321170579	113.2799565245
0	2547	90950.006938874084	290.1856177035
0	2549	90966.911944521156	16.905005647072
0	2551	91017.778132609412	50.866188088256
0	2553	91029.408899585546	11.630766976134
0	2555	91029.768198477856	0.35929889231
0	2558	91107.538451328127	77.770252850271
0	2560	91119.164612614703	11.626161286576
0	2561	91199.182873405508	80.018260790805
0	2565	91249.039861003029	49.856987597521
0	2573	91314.498943459398	65.459082456369
0	2577	91369.67222382551	55.173280366112
0	2583	91673.461165498977	303.78894167347
0	2585	91726.33758505006	52.876419551083
0	2587	91797.539293939021	71.201708888961
0	2590	91843.739049628263	46.199755689242
0	2592	91874.056201174155	30.317151545892
0	2595	91930.336382105052	56.280180930897
0	2598	91982.892411143277	52.556029038225
0	2601	92307.137588748228	324.24517760495
0	2604	92349.79917770019	42.661588951962
0	2606	92436.283039181172	86.483861480982
0	2608	92439.654959852493	3.371920671321
0	2615	92728.627521976159	288.97256212367
0	2619	92808.158431080323	79.530909104164
0	2622	92845.235939144741	37.077508064418
0	2624	92861.240435964479	16.004496819738
0	2627	93028.81319416394	167.57275819946
0	2629	93055.288697251829	26.475503087889
0	2632	93150.525171294881	95.236474043052
0	2636	93192.4663169454	41.941145650519
0	2638	93229.421556373752	36.955239428352
0	2640	93255.72945319956	26.307896825808
0	2643	93291.846984675162	36.117531475602
0	2647	93350.418840069942	58.57185539478
0	2649	93353.855521641218	3.436681571276
0	2655	93718.15421220824	364.29869056702
0	2658	93841.934392025569	123.78017981733
0	2661	94016.417123767049	174.48273174148
0	2664	94182.125151873141	165.70802810609
0	2667	94209.934734750245	27.809582877104
0	2670	94420.151410406549	210.2166756563
0	2672	94481.994978230217	61.843567823668
0	2675	94539.973546412415	57.978568182198
0	2679	94847.422639033142	307.44909262073
0	2682	94941.048744611773	93.626105578631
0	2686	95135.529604839467	194.48086022769
0	2688	95172.746985910054	37.217381070587
0	2691	95197.395412581919	24.648426671865
0	2693	95210.470424719061	13.075012137142
0	2695	95276.038327627195	65.567902908134
0	2699	95308.785280439117	32.746952811922
0	2702	95406.688073092361	97.902792653244
0	2704	95439.223359013028	32.535285920667
0	2706	95481.642648085661	42.419289072633
0	2708	95485.481720224318	3.839072138657
0	2709	95503.441386908268	17.95966668395
0	2716	95528.386147546827	24.944760638559
0	2717	95542.562593139285	14.176445592458
0	2718	95562.230850423206	19.668257283921
0	2730	95715.513687303213	153.28283688001
0	2733	95774.530314417657	59.016627114444
0	2738	95918.994754548736	144.46444013108
0	2742	96327.900527990765	408.90577344203
0	2744	96362.52251049089	34.621982500125
0	2748	96599.834970820801	237.31246032991
0	2750	96609.457315089541	9.62234426874
0	2752	96611.485358254858	2.028043165317
0	2754	96622.58068627186	11.095328017002
0	2757	96741.663367665687	119.08268139383
0	2759	96747.23074067699	5.567373011303
0	2766	97025.882864385987	278.652123709
0	2768	97073.755260551276	47.872396165289
0	2771	97159.918057067096	86.16279651582
0	2773	97185.570416815364	25.652359748268
0	2778	97316.061180063015	130.49076324765
0	2781	97405.143071103091	89.081891040076
0	2784	97506.442700531252	101.29962942816
0	2786	97507.883107363133	1.440406831881
0	2788	97538.971285502368	31.088178139235
0	2791	97686.484954889644	147.51366938728
0	2795	97875.986934184326	189.50197929468
0	2797	97928.302317903784	52.315383719458
0	2799	98074.737887468262	146.43556956448
0	2804	98314.636634560837	239.89874709258
0	2806	98318.570063724813	3.933429163976
0	2810	98567.649967698786	249.07990397397
0	2812	98580.190182545972	12.540214847186
0	2815	98742.478669097688	162.28848655172
0	2817	98765.559269453675	23.080600355987
0	2819	98770.010279500408	4.451010046733
0	2826	99091.79979602386	321.78951652345
0	2828	99153.706851865463	61.907055841603
0	2832	99532.81024982437	379.10339795891
0	2834	99608.000389799054	75.190139974684
0	2836	99630.487693496484	22.48730369743
0	2838	99639.673976060859	9.186282564375
0	2842	99755.88301997131	116.20904391045
0	2846	100136.935671712974	381.05265174166
0	2848	100203.971734803706	67.036063090732
0	2850	100269.620583778176	65.64884897447
0	2853	100363.397677869458	93.777094091282
0	2855	100364.161365940035	0.763688070577
0	2857	100366.294818002732	2.133452062697
0	2864	100496.010378233915	129.71556023118
0	2866	100518.919219634976	22.908841401061
0	2870	100580.587615244057	61.668395609081
0	2872	100680.802045652001	100.21443040794
0	2874	100686.568180722019	5.766135070018
0	2877	100745.919455626917	59.351274904898
0	2880	100886.543031535675	140.62357590876
0	2887	101149.261040282203	262.71800874653
0	2889	101208.827484838735	59.566444556532
0	2891	101226.663097642873	17.835612804138
0	2896	101383.179986447508	156.51688880463
0	2899	101529.042825537498	145.86283908999
0	2902	101862.711825590027	333.66900005253
0	2904	101932.019629861962	69.307804271935
0	2907	102028.200399138996	96.180769277034
0	2909	102030.295170120457	2.094770981461
0	2912	102049.46764370471	19.172473584253
0	2914	102089.797898597609	40.330254892899
0	2920	102251.133509460557	161.33561086295
0	2922	102288.061714136763	36.928204676206
0	2924	102288.273048308175	0.211334171412
0	2926	102311.913297343019	23.640249034844
0	2928	102341.889143833588	29.975846490569
0	2931	102407.197438943143	65.308295109555
0	2937	102532.059369394221	124.86193045108
0	2939	102557.121333646901	25.06196425268
0	2941	102572.393439499976	15.272105853075
0	2944	102693.382597097807	120.98915759783
0	2946	102705.793465471332	12.410868373525
0	2949	102717.19261903341	11.399153562078
0	2952	102805.612763504058	88.420144470648
0	2954	102807.406323328805	1.793559824747
0	2960	103054.945155691476	247.53883236267
0	2965	103186.722628352909	131.77747266143
0	2967	103202.157608462025	15.434980109116
0	2971	103319.42869121355	117.27108275153
0	2974	103515.023510610341	195.59481939679
0	2976	103543.423018694757	28.399508084416
0	2979	103704.445533192433	161.02251449768
0	2981	103769.649835859444	65.204302667011
0	2983	103800.205876638299	30.556040778855
0	2988	103907.826258992375	107.62038235408
0	2992	104059.491792271646	151.66553327927
0	2995	104249.306309489168	189.81451721752
0	2998	104326.791155591186	77.484846102018
0	3002	104463.1329825632	136.34182697201
0	3004	104503.989153452421	40.856170889221
0	3006	104507.142293418209	3.153139965788
0	3009	104532.992166309481	25.849872891272
0	3011	104535.10620797575	2.114041666269
0	3013	104536.74867010918	1.64246213343
0	3015	104541.390928517314	4.642258408134
0	3022	104751.734004641827	210.34307612451
0	3024	104848.973639848866	97.239635207039
0	3026	104867.852857964618	18.879218115752
0	3028	104876.799784684661	8.946926720043
0	3032	104897.889484396709	21.089699712048
0	3033	104980.024513835792	82.135029439083
0	3042	105126.598387053206	146.57387321741
0	3046	105272.543711934448	145.94532488124
0	3048	105297.464771760589	24.921059826141
0	3053	105406.505765465906	109.04099370532
0	3055	105413.85069323768	7.344927771774
0	3059	105693.537636512915	279.68694327523
0	3061	105753.551481722484	60.013845209569
0	3065	105959.811293123363	206.25981140088
0	3069	106054.687277904344	94.875984780981
0	3071	106086.517252907999	31.829975003655
0	3074	106104.117263340871	17.600010432872
0	3077	106388.93158614515	284.81432280428
0	3080	106417.537739995911	28.606153850761
0	3083	106535.904704452388	118.36696445648
0	3085	106538.469947345281	2.565242892893
0	3089	106720.315061827288	181.84511448201
0	3092	106806.403609080129	86.088547252841
0	3094	106842.197852464368	35.794243384239
0	3096	106904.7082983735	62.510445909132
0	3100	107148.423011803012	243.71471342951
0	3103	107250.124474620825	101.70146281781
0	3105	107316.919668140356	66.795193519531
0	3110	107425.301496842296	108.38182870194
0	3113	107454.674597734748	29.373100892452
0	3115	107459.358248495083	4.683650760335
0	3117	107480.961274011756	21.603025516673
0	3121	107626.176510182819	145.21523617106
0	3125	107834.619575303364	208.44306512054
0	3127	107965.843328878516	131.22375357515
0	3129	107995.989680693417	30.146351814901
0	3133	108163.687383665868	167.69770297245
0	3137	108473.567599105525	309.88021543966
0	3140	108587.660189688503	114.09259058298
0	3143	108723.444287631167	135.78409794266
0	3145	108770.062710552238	46.618422921071
0	3149	108948.632641704545	178.56993115231
0	3151	109048.857154445326	100.22451274078
0	3154	109155.416851122335	106.55969667701
0	3157	109159.816636165658	4.399785043323
0	3159	109219.614152770956	59.797516605298
0	3162	109314.839188337774	95.225035566818
0	3164	109322.837605571979	7.998417234205
0	3170	109451.544852116875	128.7072465449
0	3172	109502.506488243017	50.961636126142
0	3175	109601.34840505663	98.841916813613
0	3180	109846.787951231576	245.43954617495
0	3182	109912.147915027542	65.359963795966
0	3186	110428.27230674725	516.12439171971
0	3189	110574.666978079302	146.39467133205
0	3192	110685.299360933471	110.63238285417
0	3194	110803.845521952768	118.5461610193
0	3196	111063.961777749215	260.11625579645
0	3200	111217.888913465788	153.92713571657
0	3202	111325.108044617209	107.21913115142
0	3207	111609.290968024292	284.18292340708
0	3209	111723.437842618465	114.14687459417
0	3211	111769.918923965354	46.481081346889
0	3214	111807.345093450973	37.426169485619
0	3219	112623.328505373004	815.98341192203
0	3221	112701.766576737022	78.438071364018
0	3223	112951.141399351633	249.37482261461
0	3227	113164.058294807898	212.91689545626
0	3230	113253.462979985071	89.404685177173
0	3232	113282.502208935569	29.039228950498
0	3235	113293.539903878517	11.037694942948
0	3238	113379.880564507057	86.34066062854
0	3242	113613.900590436676	234.02002592962
0	3244	113618.503217756813	4.602627320137
0	3249	113692.118189034477	73.614971277664
0	3251	113722.809080012282	30.690890977805
0	3253	113808.521666636439	85.712586624157
0	3257	113851.566260090525	43.044593454086
0	3259	113896.222520723422	44.656260632897
0	3261	113906.598317971195	10.375797247773
0	3264	113950.880440459072	44.282122487877
0	3270	114097.296100241149	146.41565978208
0	3272	114140.610938337306	43.314838096157
0	3274	114267.563459628256	126.95252129095
0	3279	114718.024000967701	450.46054133945
0	3281	114756.295168081357	38.271167113656
0	3283	114873.757002111827	117.46183403047
0	3287	114932.367995119264	58.610993007437
0	3289	114963.441977311168	31.073982191904
0	3291	115017.288477488899	53.846500177731
0	3295	115087.658306043967	70.369828555068
0	3299	115213.378111119759	125.71980507579
0	3301	115278.729983405939	65.35187228618
0	3304	115336.570519521119	57.84053611518
0	3308	115519.300424557021	182.7299050359
0	3310	115586.971908336522	67.671483779501
0	3314	115741.969492401966	154.99758406544
0	3316	115798.848931505649	56.879439103683
0	3318	115832.632962421803	33.784030916154
0	3323	116113.077262274839	280.44429985304
0	3326	116179.542481596221	66.465219321382
0	3329	116278.79573864216	99.253257045939
0	3332	116316.492239900861	37.696501258701
0	3335	116459.946096130735	143.45385622987
0	3339	116761.415363205283	301.46926707455
0	3341	116857.314405607238	95.899042401955
0	3345	117099.465558032599	242.15115242536
0	3347	117141.387203982114	41.921645949515
0	3351	117270.62838761812	129.24118363601
0	3353	117296.12708616611	25.49869854799
0	3356	117468.134986662366	172.00790049626
0	3358	117545.190457153545	77.055470491179
0	3363	117636.349303214991	91.158846061446
0	3365	117650.584473842187	14.235170627196
0	3367	117699.384251247304	48.799777405117
0	3369	117726.59699575041	27.212744503106
0	3373	117789.107591303232	62.510595552822
0	3377	117886.133915433986	97.026324130754
0	3380	117971.535619594287	85.401704160301
0	3383	118082.278127430915	110.74250783663
0	3385	118100.969613335045	18.69148590413
0	3389	118198.576570575591	97.606957240546
0	3393	118525.04767991827	326.47110934268
0	3396	118643.720538112792	118.67285819452
0	3398	118646.927850735253	3.207312622461
0	3400	118668.685750550438	21.757899815185
0	3403	118884.921085417926	216.23533486749
0	3407	119079.75876359542	194.83767817749
0	3409	119190.768089825549	111.00932623013
0	3412	119379.690438679683	188.92234885413
0	3416	119471.771819074052	92.081380394369
0	3418	119472.035186992803	0.263367918751
0	3420	119499.384035198197	27.348848205394
0	3423	119534.222672648196	34.838637449999
0	3425	119626.500815990682	92.278143342486
0	3427	119642.333402628181	15.832586637499
0	3433	119883.406625168876	241.07322254069
0	3437	119998.268166809811	114.86154164094
0	3440	120051.491930826073	53.223764016262
0	3444	120392.096560629341	340.60462980327
0	3447	120452.016708576698	59.920147947357
0	3449	120465.23583055526	13.219121978562
0	3452	120479.736629483144	14.500798927884
0	3455	120551.093238022764	71.35660853962
0	3459	120706.102785458134	155.00954743537
0	3461	120751.928761808866	45.825976350732
0	3464	120846.823393347516	94.89463153865
0	3466	120880.374538003812	33.551144656296
0	3469	120924.592835645674	44.218297641862
0	3472	121191.003389302788	266.41055365711
0	3476	121220.674192183877	29.670802881089
0	3480	121314.419093930292	93.744901746415
0	3483	121396.30460986973	81.885515939438
0	3485	121446.116237466897	49.811627597167
0	3487	121454.037770070096	7.921532603199
0	3489	121478.912873052872	24.875102982776
0	3492	121497.191457956165	18.278584903293
0	3495	121552.802148521985	55.61069056582
0	3497	121562.936713013059	10.134564491074
0	3504	121635.086621833812	72.149908820753
0	3506	121671.760812236318	36.674190402506
0	3508	121794.559753065378	122.79894082906
0	3510	121841.340734344186	46.780981278808
0	3514	121905.455860945923	64.115126601737
0	3519	121970.258373994613	64.80251304869
0	3521	122010.64384051448	40.385466519867
0	3528	122183.22386970517	172.58002919069
0	3530	122194.440010256987	11.216140551817
0	3535	122418.214867493923	223.77485723694
0	3539	122773.452535523506	355.23766802958
0	3541	122779.383598973602	5.931063450096
0	3543	122805.691521447571	26.307922473969
0	3547	122846.681111995769	40.989590548198
0	3551	123063.18576883771	216.50465684194
0	3554	123179.973648980441	116.78788014273
0	3556	123244.730494190008	64.756845209567
0	3558	123315.741722646028	71.01122845602
0	3562	123387.986646204508	72.24492355848
0	3564	123525.188706914068	137.20206070956
0	3567	123548.689521051915	23.500814137847
0	3571	123742.907938097753	194.21841704584
0	3573	123781.600186606592	38.692248508839
0	3576	123834.567415036939	52.967228430347
0	3578	123913.130238767584	78.562823730645
0	3581	123950.396039281169	37.265800513585
0	3584	123987.606842671262	37.210803390093
0	3588	124055.244799396642	67.63795672538
0	3592	124154.983854578322	99.73905518168
0	3594	124256.046341815744	101.06248723742
0	3599	124474.73489239052	218.68855057478
0	3601	124501.556184888054	26.821292497534
0	3604	124535.795336113986	34.239151225932
0	3608	124690.836458860434	155.04112274645
0	3610	124697.347353120362	6.510894259928
0	3613	124817.202522954477	119.85516983412
0	3616	124984.049571282128	166.84704832765
0	3620	125158.097753788132	174.048182506
0	3622	125187.224792037886	29.127038249754
0	3624	125375.951840868043	188.72704883016
0	3628	125458.901973430937	82.950132562894
0	3632	125739.325537150361	280.42356371942
0	3634	125791.380820666803	52.055283516442
0	3636	125837.381981634098	46.001160967295
0	3638	125840.927858596518	3.54587696242
0	3643	126093.76804845184	252.84018985532
0	3647	126127.255633984282	33.487585532442
0	3649	126236.386065899055	109.13043191477
0	3651	126262.068549403392	25.682483504337
0	3654	126391.80469740979	129.7361480064
0	3657	126474.484948907701	82.680251497911
0	3659	126500.211899084708	25.726950177007
0	3661	126533.838403707349	33.626504622641
0	3664	126592.419060381277	58.580656673928
0	3671	127122.584282005624	530.16522162435
0	3673	127134.701402675227	12.117120669603
0	3676	127352.982843359199	218.28144068397
0	3678	127368.543896773613	15.561053414414
0	3680	127410.745038396234	42.201141622621
0	3684	127472.976625947841	62.231587551607
0	3688	127534.96097809644	61.984352148599
0	3690	127552.483351335422	17.522373238982
0	3692	127569.50078088325	17.017429547828
0	3695	127592.380293057524	22.879512174274
0	3699	127672.993649936023	80.613356878499
0	3703	127778.631692561952	105.63804262593
0	3705	127839.879943834691	61.248251272739
0	3709	128006.829082584582	166.94913874989
0	3713	128318.549755906791	311.72067332221
0	3716	128641.594087270074	323.04433136328
0	3718	128672.553269489985	30.959182219911
0	3720	128833.182019132254	160.62874964227
0	3722	128857.518718910044	24.33669977779
0	3728	129079.589827838603	222.07110892856
0	3730	129140.999024973271	61.409197134668
0	3732	129168.918273218771	27.9192482455
0	3734	129186.714663865497	17.796390646726
0	3737	129259.773354055634	73.058690190137
0	3740	129304.881129630518	45.107775574884
0	3744	129425.18313998234	120.30201035182
0	3747	129442.438878254954	17.255738272614
0	3749	129462.24264450627	19.803766251316
0	3751	129490.819907006582	28.577262500312
0	3754	129537.631885465754	46.811978459172
0	3761	130343.629406037575	805.99752057182
0	3764	130585.697118005038	242.06771196746
0	3767	130685.170345401675	99.473227396637
0	3770	130996.131740889621	310.96139548795
0	3772	131155.441394552069	159.30965366245
0	3776	131195.961542744828	40.520148192759
0	3778	131199.556889223395	3.595346478567
0	3780	131295.861559634764	96.304670411369
0	3784	131501.244180258312	205.38262062355
0	3788	131910.60776136343	409.36358110512
0	3791	131981.340798685166	70.733037321736
0	3793	131999.976205686556	18.63540700139
0	3797	132109.463291108932	109.48708542238
0	3799	132122.933921442749	13.470630333817
0	3801	132126.836998194889	3.90307675214
0	3805	132228.407738587062	101.57074039217
0	3809	132794.839815305169	566.43207671811
0	3811	132956.326721308464	161.48690600329
0	3815	133016.448327083676	60.121605775212
0	3818	133160.448896473791	144.00056939012
0	3820	133178.237030317402	17.788133843611
0	3823	133412.739821589193	234.50279127179
0	3825	133421.287775875229	8.547954286036
0	3827	133421.445574339288	0.157798464059
0	3829	133435.337657410771	13.892083071483
0	3831	133489.243763952277	53.906106541506
0	3835	133528.158567867096	38.914803914819
0	3836	133532.102183097201	3.943615230105
0	3845	133604.823394207704	72.721211110503
0	3848	133687.795562730922	82.972168523218
0	3850	133700.827769002549	13.032206271627
0	3852	133810.505546602593	109.67777760004
0	3858	133981.722954745899	171.21740814331
0	3860	134007.096772916707	25.373818170808
0	3862	134029.844413218048	22.747640301341
0	3866	134072.299291737238	42.45487851919
0	3871	134175.023082914097	102.72379117686
0	3874	134205.842346032238	30.819263118141
0	3877	134234.821586406367	28.979240374129
0	3883	134452.464121157841	217.64253475147
0	3886	134878.692563978859	426.22844282102
0	3888	134950.53117085446	71.838606875601
0	3890	135025.176913071655	74.645742217195
0	3892	135050.84676764152	25.669854569865
0	3897	135140.179064546429	89.332296904909
0	3900	135168.928278355067	28.749213808638
0	3902	135195.116053227436	26.187774872369
0	3905	135340.106650220345	144.99059699291
0	3909	135440.514436352568	100.40778613222
0	3913	135618.89346442766	178.37902807509
0	3915	135632.643134498956	13.749670071296
0	3918	135678.670364387892	46.027229888936
0	3923	135906.057283469536	227.38691908164
0	3925	135991.319391770704	85.262108301168
0	3929	136172.850429154396	181.53103738369
0	3931	136229.790834872575	56.940405718179
0	3934	136241.436015274332	11.645180401757
0	3936	136493.047067950919	251.61105267659
0	3938	136505.466913110138	12.419845159219
0	3944	136796.971115312634	291.5042022025
0	3947	137082.040657429532	285.0695421169
0	3950	137314.790089871628	232.7494324421
0	3952	137346.952062969086	32.161973097458
0	3954	137381.574480203406	34.62241723432
0	3956	137387.688768857355	6.114288653949
0	3962	137810.493431522663	422.80466266531
0	3965	137938.653687901459	128.1602563788
0	3968	138015.713214769088	77.059526867629
0	3971	138041.075646354986	25.362431585898
0	3973	138182.366136526569	141.29049017158
0	3977	138506.19900220847	323.8328656819
0	3980	138687.796713840112	181.59771163164
0	3982	138691.30977968602	3.513065845908
0	3984	138695.950639960819	4.640860274799
0	3986	138717.529554486132	21.578914525313
0	3989	138822.45069220814	104.92113772201
0	3994	138945.686761868375	123.23606966024
0	3996	138965.960036965196	20.273275096821
0	3998	138996.516003889862	30.555966924666
0	4003	139062.00554751181	65.489543621948
0	4006	139149.282666986801	87.277119474991
0	4010	139377.383154210154	228.10048722335
0	4012	139471.041803716758	93.658649506604
0	4015	139783.597345102737	312.55554138598
0	4018	139856.950530575373	73.353185472636
0	4020	139880.352063277803	23.40153270243
0	4025	140063.767512147827	183.41544887002
0	4027	140159.794171884093	96.026659736266
0	4029	140194.708780518709	34.914608634616
0	4031	140241.408571498026	46.699790979317
0	4035	140345.490977487127	104.0824059891
0	4040	140459.052360333363	113.56138284624
0	4043	140541.748087183722	82.695726850359
0	4045	140625.085126118526	83.337038934804
0	4047	140639.684263143905	14.599137025379
0	4049	140667.043741396833	27.359478252928
0	4051	140669.538479901305	2.494738504472
0	4054	140681.455092963597	11.916613062292
0	4056	140701.562556566072	20.107463602475
0	4062	140926.712545249759	225.14998868369
0	4064	140977.722005898669	51.00946064891
0	4066	140999.270989058213	21.548983159544
0	4071	141087.028740719779	87.757751661566
0	4074	141139.723631175919	52.69489045614
0	4078	141291.890783476526	152.16715230061
0	4082	141374.925463837434	83.034680360908
0	4084	141434.380953126901	59.455489289467
0	4086	141448.626759356665	14.245806229764
0	4089	141528.618471668575	79.99171231191
0	4093	141688.858893499574	160.240421831
0	4097	141793.522077359241	104.66318385967
0	4100	141872.443542414258	78.921465055017
0	4102	142011.219268709678	138.77572629542
0	4105	142028.819349130673	17.600080420995
0	4111	142812.970875083499	784.15152595283
0	4113	142867.438826263819	54.46795118032
0	4117	142991.891294495917	124.4524682321
0	4119	143129.175085331253	137.28379083534
0	4122	143213.565910381264	84.390825050011
0	4124	143220.353871904195	6.787961522931
0	4127	143317.659543414214	97.305671510019
0	4130	143625.700473301218	308.040929887
0	4132	143730.962383411909	105.26191011069
0	4135	143786.300504330337	55.338120918428
0	4138	143978.533854545136	192.2333502148
0	4144	144258.497459414493	279.96360486936
0	4146	144454.834104522811	196.33664510832
0	4148	144458.371297190343	3.537192667532
0	4151	144652.419779417688	194.04848222735
0	4153	144718.520481684286	66.100702266598
0	4157	144840.615850481797	122.09536879751
0	4160	144934.516148690739	93.900298208942
0	4165	145117.988757432772	183.47260874203
0	4168	145296.118218365936	178.12946093316
0	4171	145432.726122452316	136.60790408638
0	4173	145446.023621792803	13.297499340487
0	4176	145514.973298118575	68.949676325772
0	4178	145620.806547560007	105.83324944143
0	4181	145639.077954399853	18.271406839846
0	4184	145707.906996009946	68.829041610093
0	4186	145711.940913507154	4.033917497208
0	4191	145912.850926049562	200.91001254241
0	4194	146045.643965484473	132.79303943491
0	4196	146182.380460589283	136.73649510481
0	4199	146259.073311846307	76.692851257024
0	4201	146260.195606239366	1.122294393059
0	4206	146410.636730031363	150.441123792
0	4208	146434.027928898798	23.391198867435
0	4211	146442.951141411625	8.923212512827
0	4213	146463.298061486009	20.346920074384
0	4216	146479.020770248721	15.722708762712
0	4220	146564.569388473764	85.548618225043
0	4224	146695.647566659002	131.07817818524
0	4226	146741.454016173251	45.806449514249
0	4228	146829.308077585797	87.854061412546
0	4231	146971.223716786058	141.91563920026
0	4236	147171.869306604621	200.64558981856
0	4238	147231.002205461795	59.132898857174
0	4240	147257.713982071005	26.71177660921
0	4242	147258.820449855936	1.106467784931
0	4244	147287.531664013577	28.711214157641
0	4245	147291.730918656546	4.199254642969
0	4249	147326.975646441095	35.244727784549
0	4258	147417.415521852739	90.439875411644
0	4262	147491.343197129291	73.927675276552
0	4264	147504.127863502239	12.784666372948
0	4269	147622.212573864868	118.08471036263
0	4272	147698.158210414562	75.945636549694
0	4274	147756.923972461202	58.76576204664
0	4278	147851.163833904722	94.23986144352
0	4280	147878.00660333367	26.842769428948
0	4282	147888.748857265302	10.742253931632
0	4286	148138.591710686174	249.84285342087
0	4290	148231.011202665009	92.419491978835
0	4293	148383.363225625305	152.3520229603
0	4295	148386.268693477375	2.90546785207
0	4300	148633.972216003143	247.70352252577
0	4303	148804.297858873479	170.32564287034
0	4305	148945.513714803608	141.21585593013
0	4309	149087.119879795717	141.60616499211
0	4311	149103.666715133603	16.546835337886
0	4314	149226.436728716573	122.77001358297
0	4317	149369.227846588723	142.79111787215
0	4321	149595.140343388519	225.9124967998
0	4323	149617.979384235685	22.839040847166
0	4326	149650.597404934138	32.618020698453
0	4328	149739.550579137942	88.953174203804
0	4330	149814.875004252832	75.32442511489
0	4333	149871.783041386445	56.908037133613
0	4339	150094.439171533985	222.65613014754
0	4341	150155.100158035123	60.660986501138
0	4343	150213.645507619484	58.545349584361
0	4348	150423.889441043071	210.24393342359
0	4350	150558.682691275071	134.793250232
0	4353	150599.171709879282	40.489018604211
0	4357	150953.82577933795	354.65406945867
0	4359	150997.78744675779	43.96166741984
0	4363	151339.915134666269	342.12768790848
0	4366	151408.8050783706	68.889943704331
0	4368	151566.695043251522	157.88996488092
0	4371	151586.57799763949	19.882954387968
0	4373	151620.13311547983	33.55511784034
0	4377	151684.367467103537	64.234351623707
0	4379	151734.853288604921	50.485821501384
0	4384	152150.903357374021	416.0500687691
0	4386	152174.925359189302	24.022001815281
0	4389	152225.766078951229	50.840719761927
0	4391	152281.862569344222	56.096490392993
0	4395	152445.622618114682	163.76004877046
0	4397	152514.432790134676	68.810172019994
0	4400	152595.868506828166	81.43571669349
0	4402	152647.895387018501	52.026880190335
0	4406	152768.846949262655	120.95156224415
0	4409	152883.77678592769	114.92983666503
0	4412	153009.521391587633	125.74460565994
0	4415	153183.936457382974	174.41506579534
0	4417	153221.740666703552	37.804209320578
0	4420	153268.209761172579	46.469094469027
0	4423	153328.47014172155	60.260380548971
0	4428	153454.589641270688	126.11949954914
0	4430	153459.754823862953	5.165182592265
0	4433	153529.054292985564	69.299469122611
0	4437	153670.909330956717	141.85503797115
0	4439	153674.795894181632	3.886563224915
0	4441	153759.100837525313	84.304943343681
0	4447	153813.8305498409	54.729712315587
0	4449	153955.751597302556	141.92104746166
0	4452	154211.823058942836	256.07146164028
0	4455	154533.559826485856	321.73676754302
0	4458	154702.745582401803	169.18575591595
0	4462	155241.889129902977	539.14354750117
0	4464	155287.915185518763	46.026055615786
0	4467	155368.267124223959	80.351938705196
0	4469	155404.976944457672	36.709820233713
0	4471	155443.261265569157	38.284321111485
0	4473	155496.462096626653	53.200831057496
0	4475	155531.037539442984	34.575442816331
0	4479	155540.700570016732	9.663030573748
0	4486	155638.103106623003	97.402536606271
0	4488	155680.343369425776	42.240262802773
0	4490	155712.255587975968	31.912218550192
0	4495	155913.66991973326	201.41433175729
0	4499	155984.871208901542	71.201289168282
0	4502	156174.031254521903	189.16004562036
0	4506	156332.146937172642	158.11568265074
0	4508	156336.919227575442	4.7722904028
0	4511	156513.858620246339	176.9393926709
0	4513	156600.981010898621	87.122390652282
0	4516	156609.90663727188	8.925626373259
0	4518	156736.781370387942	126.87473311606
0	4522	156760.901992616055	24.120622228113
0	4524	156777.518053250609	16.616060634554
0	4526	156791.502829917431	13.984776666822
0	4530	156839.623353615101	48.12052369767
0	4534	156918.57762189785	78.954268282749
0	4538	156987.428708915989	68.851087018139
0	4541	157039.496025609661	52.067316693672
0	4544	157170.840590602735	131.34456499307
0	4546	157204.024652637331	33.184062034596
0	4549	157279.022837999219	74.998185361888
0	4552	157484.782591311106	205.75975331189
0	4557	157974.575753128836	489.79316181773
0	4560	158152.502188185088	177.92643505625
0	4562	158256.678825017027	104.17663683194
0	4564	158273.885290252583	17.206465235556
0	4566	158325.215239154541	51.329948901958
0	4569	158330.760040036554	5.544800882013
0	4571	158362.064242401873	31.304202365319
0	4574	158372.738038162212	10.673795760339
0	4577	158521.645878537371	148.90784037516
0	4582	158698.469955723907	176.82407718654
0	4584	158705.326859170411	6.856903446504
0	4586	158712.853463053576	7.526603883165
0	4592	158808.024230864267	95.170767810691
0	4594	158853.352041710564	45.327810846297
0	4597	158953.990657362768	100.6386156522
0	4600	158991.058447881064	37.067790518296
0	4603	159005.578038066483	14.519590185419
0	4608	159181.340263614108	175.76222554763
0	4610	159193.465950277593	12.125686663485
0	4612	159205.614762190368	12.148811912775
0	4615	159305.969215683767	100.3544534934
0	4617	159336.945626674294	30.976410990527
0	4619	159375.040711859725	38.095085185431
0	4626	159947.011817849772	571.97110599005
0	4628	159988.638476696164	41.626658846392
0	4630	160009.03214137831	20.393664682146
0	4633	160064.333792664736	55.301651286426
0	4636	160153.085788330398	88.751995665662
0	4638	160184.767008997645	31.681220667247
0	4643	160490.555405341359	305.78839634371
0	4645	160590.714726427614	100.15932108625
0	4647	160603.270001829884	12.55527540227
0	4653	160938.23254974364	334.96254791376
0	4655	160974.159213919772	35.926664176132
0	4658	161115.381786992949	141.22257307318
0	4662	161575.829708699347	460.4479217064
0	4664	161616.111745022799	40.282036323452
0	4666	161761.613890776382	145.50214575358
0	4670	161788.302972474182	26.6890816978
0	4674	162275.94030002878	487.6373275546
0	4676	162304.900127670404	28.959827641624
0	4678	162319.547449990037	14.647322319633
0	4680	162430.642824341624	111.09537435159
0	4686	162845.588497041573	414.94567269995
0	4688	162940.291974634473	94.7034775929
0	4691	163016.273432889422	75.981458254949
0	4693	163115.943164791668	99.669731902246
0	4697	163264.609381377592	148.66621658592
0	4701	163394.537292368029	129.92791099044
0	4703	163413.89278439735	19.355492029321
0	4706	163592.63092812625	178.7381437289
0	4708	163709.63070291335	116.9997747871
0	4713	163894.069564921278	184.43886200793
0	4715	163924.434692852165	30.365127930887
0	4717	164003.060450447247	78.625757595082
0	4720	164099.021479278582	95.961028831335
0	4723	164322.729588781427	223.70810950284
0	4726	164399.756257850689	77.026669069262
0	4729	164464.036404952625	64.280147101936
0	4731	164551.888576260836	87.852171308211
0	4736	164635.103031280642	83.214455019806
0	4739	164780.519923852753	145.41689257211
0	4741	164914.180743088255	133.6608192355
0	4746	165445.202934912867	531.02219182461
0	4748	165447.973745709483	2.770810796616
0	4750	165461.161063265856	13.187317556373
0	4752	165481.255763755115	20.094700489259
0	4754	165489.577144732987	8.321380977872
0	4758	165654.399978859619	164.82283412663
0	4760	165673.116144508238	18.716165648619
0	4764	165916.591695558051	243.47555104981
0	4766	165953.457948926935	36.866253368884
0	4772	166146.063313517399	192.60536459046
0	4774	166149.75431259021	3.690999072811
0	4778	166246.753485939738	96.999173349528
0	4780	166291.74015701435	44.986671074612
0	4785	166639.643754646189	347.90359763184
0	4787	166670.033589169974	30.389834523785
0	4789	166684.818027296026	14.784438126052
0	4792	166983.09704031697	298.27901302094
0	4794	167192.649860822053	209.55282050508
0	4796	167195.668085798496	3.018224976443
0	4799	167207.22873423018	11.560648431684
0	4802	167364.043006145173	156.81427191499
0	4808	167542.984794744793	178.94178859962
0	4812	167812.109311021623	269.12451627683
0	4814	167817.239762632789	5.130451611166
0	4816	167837.477324541284	20.237561908495
0	4818	167937.604817588715	100.12749304743
0	4820	167943.556600957308	5.951783368593
0	4823	167964.090072735102	20.533471777794
0	4827	168127.471772776258	163.38170004116
0	4831	168187.827414590363	60.355641814105
0	4836	168435.279806041614	247.45239145125
0	4839	168658.975944968095	223.69613892648
0	4841	168710.407374930768	51.431429962673
0	4844	168766.436970392751	56.029595461983
0	4846	168771.694773402645	5.257803009894
0	4850	168868.741733236533	97.046959833888
0	4853	169028.857939477661	160.11620624113
0	4855	169100.384357950244	71.526418472583
0	4858	169188.184047706927	87.799689756683
0	4863	169426.319867197224	238.1358194903
0	4865	169434.233070264914	7.91320306769
0	4867	169442.668351911815	8.435281646901
0	4869	169486.303251622257	43.634899710442
0	4871	169532.819040049447	46.51578842719
0	4876	169656.293905866974	123.47486581753
0	4879	169788.667781538717	132.37387567174
0	4883	169977.687058785975	189.01927724726
0	4885	169996.030795427852	18.343736641877
0	4888	170042.646388627795	46.615593199943
0	4892	170314.510079332951	271.86369070516
0	4896	170603.373090892643	288.86301155969
0	4898	170713.559715814728	110.18662492209
0	4900	170818.503685276236	104.94396946151
0	4902	170858.436124837408	39.932439561172
0	4905	170889.86856514734	31.432440309932
0	4908	170971.646536450756	81.777971303416
0	4911	170983.730843805136	12.08430735438
0	4916	171097.694285491587	113.96344168645
0	4920	171278.045611748068	180.35132625648
0	4922	171451.642924337402	173.59731258933
0	4926	171513.434477194797	61.791552857395
0	4929	171632.450877572983	119.01640037819
0	4931	171671.730514655201	39.279637082218
0	4933	171796.357588422589	124.62707376739
0	4936	171874.48871217194	78.131123749351
0	4938	171884.849744993586	10.361032821646
0	4940	171897.104977435575	12.255232441989
0	4945	172109.028011760061	211.92303432449
0	4949	172153.115699768235	44.087688008174
0	4952	172256.816201723334	103.7005019551
0	4955	172357.422701035876	100.60649931254
0	4959	172478.285085798105	120.86238476223
0	4962	172662.724281218015	184.43919541991
0	4964	172667.904133356206	5.179852138191
0	4966	172716.280631182289	48.376497826083
0	4970	172773.294145692409	57.01351451012
0	4972	172862.089660640964	88.795514948555
0	4974	172870.016476277143	7.926815636179
0	4977	172952.938607216388	82.922130939245
0	4980	172995.503086667637	42.564479451249
0	4982	173005.014304271454	9.511217603817
0	4984	173098.093208674015	93.078904402561
0	4990	173370.797131845252	272.70392317124
0	4992	173370.908397750243	0.111265904991
0	4995	173535.150115847866	164.24171809762
0	5000	173705.998125741958	170.84800989409
0	5002	173758.578279515853	52.580153773895
0	5005	173804.885553932678	46.307274416825
0	5007	173809.547731974268	4.66217804159
0	5013	174116.207792591309	306.66006061704
0	5016	174216.885859291203	100.67806669989
0	5018	174410.753561733595	193.86770244239
0	5022	174672.847326387737	262.09376465414
0	5025	174909.135713987033	236.2883875993
0	5027	174971.601279434101	62.465565447068
0	5030	175028.655692368055	57.054412933954
0	5034	175280.816496127238	252.16080375918
0	5036	175290.013802766331	9.197306639093
0	5040	175492.72437031065	202.71056754432
0	5044	175719.425820645097	226.70145033445
0	5046	175740.613058018034	21.187237372937
0	5049	175794.326239659847	53.713181641813
0	5051	175895.360028491201	101.03378883135
0	5056	176316.561805425075	421.20177693387
0	5058	176607.445383274587	290.88357784951
0	5061	176708.648450549769	101.20306727518
0	5063	176738.083873010633	29.435422460864
0	5066	176843.807451991408	105.72357898078
0	5070	177040.233241547122	196.42578955571
0	5073	177209.385360234887	169.15211868776
0	5075	177264.64130537899	55.255945144103
0	5077	177310.796572827009	46.155267448019
0	5080	177320.648052868454	9.851480041445
0	5082	177382.638435802216	61.990382933762
0	5085	177493.119351371905	110.48091556969
0	5092	177848.176557152583	355.05720578068
0	5095	178010.602168961669	162.42561180909
0	5097	178275.891161085929	265.28899212426
0	5099	178298.207904491427	22.316743405498
0	5101	178321.712052492875	23.504148001448
0	5104	178414.612443218399	92.900390725524
0	5109	178673.275653669697	258.6632104513
0	5111	178688.776672410183	15.501018740486
0	5113	178785.370012694661	96.593340284478
0	5117	178941.191323739275	155.82131104461
0	5122	179295.035199334765	353.84387559549
0	5124	179302.497434284966	7.462234950201
0	5126	179321.767506024408	19.270071739442
0	5130	179439.55213471069	117.78462868628
0	5134	179527.957640692439	88.405505981749
0	5136	179580.497003709729	52.53936301729
0	5138	179593.445471760015	12.948468050286
0	5140	179596.623108420191	3.177636660176
0	5146	180030.656603079174	434.03349465898
0	5148	180078.653256680483	47.996653601309
0	5152	180479.46695724588	400.8137005654
0	5155	180711.050803746572	231.58384650069
0	5157	180798.142192871861	87.091389125289
0	5160	180936.061563950245	137.91937107838
0	5162	180948.965333109534	12.903769159289
0	5167	181205.406406662868	256.44107355333
0	5169	181387.321525849056	181.91511918619
0	5173	181540.484431737658	153.1629058886
0	5175	181613.93162249569	73.447190758032
0	5178	181755.331896695412	141.40027419972
0	5182	182088.402775951606	333.07087925619
0	5184	182111.419628995731	23.016853044125
0	5187	182261.729015657849	150.30938666212
0	5190	182325.003716415164	63.274700757315
0	5192	182398.814962755538	73.811246340374
0	5196	182595.281871112993	196.46690835745
0	5199	182771.288575067061	176.00670395407
0	5201	182852.509451745775	81.220876678714
0	5203	182859.299011303764	6.789559557989
0	5207	182901.788496714645	42.489485410881
0	5210	182978.034880316159	76.246383601514
0	5214	183146.211876708666	168.17699639251
0	5216	183150.735175146685	4.523298438019
0	5220	183241.680813027881	90.945637881196
0	5224	183271.214135463997	29.533322436116
0	5226	183377.726711603573	106.51257613958
0	5228	183400.166339555138	22.439627951565
0	5230	183417.996452021406	17.830112466268
0	5232	183419.161917572432	1.165465551026
0	5235	183451.118722538727	31.956804966295
0	5241	183635.090325716396	183.97160317767
0	5244	183766.98701631866	131.89669060226
0	5246	183839.569397886895	72.582381568235
0	5249	183850.606128713586	11.036730826691
0	5251	183856.202000209803	5.595871496217
0	5254	183896.935970344938	40.733970135135
0	5256	183909.704178912235	12.768208567297
0	5261	183987.473620409238	77.769441497003
0	5265	184176.479650228094	189.00602981886
0	5269	184364.272660464371	187.79301023628
0	5272	184410.477661496901	46.20500103253
0	5274	184456.343212478308	45.865550981407
0	5277	184595.383253426161	139.04004094785
0	5279	184652.35190687256	56.968653446399
0	5283	184814.322486955122	161.97058008256
0	5285	184837.390327023373	23.067840068251
0	5290	185042.193497552263	204.80317052889
0	5292	185065.122696425022	22.929198872759
0	5294	185115.85957217174	50.736875746718
0	5297	185219.242714254057	103.38314208232
0	5301	185350.628830233775	131.38611597972
0	5303	185366.815052520957	16.186222287182
0	5305	185411.058663627535	44.243611106578
0	5308	185434.78587338393	23.727209756395
0	5311	185467.650347764809	32.864474380879
0	5315	185595.648671156833	127.99832339202
0	5317	185635.012816031174	39.364144874341
0	5320	185702.314335993637	67.301519962463
0	5324	185748.391136710969	46.076800717332
0	5326	185749.076773374446	0.685636663477
0	5328	185761.790910692672	12.714137318226
0	5333	185941.493462122551	179.70255142988
0	5337	186135.304636763141	193.81117464059
0	5340	186414.422718543888	279.11808178075
0	5342	186447.760148978616	33.337430434728
0	5344	186531.460221210062	83.700072231446
0	5349	186648.09862739886	116.6384061888
0	5351	186705.361952733334	57.263325334474
0	5353	186866.543832317946	161.18187958461
0	5357	187033.038542406129	166.49471008818
0	5360	187050.540756172049	17.50221376592
0	5362	187091.422061734106	40.881305562057
0	5365	187181.430670025999	90.008608291893
0	5368	187188.146865321218	6.716195295219
0	5372	187339.621408623295	151.47454330208
0	5374	187382.250880145988	42.629471522693
0	5378	187505.004038641532	122.75315849554
0	5381	187617.049927983651	112.04588934212
0	5386	188163.850445176426	546.80051719278
0	5388	188400.351141059139	236.50069588271
0	5391	188496.271922067208	95.920781008069
0	5394	188653.985715475756	157.71379340855
0	5396	188669.215080938222	15.229365462466
0	5399	188742.711294098399	73.496213160177
0	5402	188788.472066835534	45.760772737135
0	5404	188829.590264266234	41.1181974307
0	5407	188877.384865192171	47.794600925937
0	5411	188909.370656097207	31.985790905036
0	5415	189113.315949388565	203.94529329136
0	5419	189355.611267300798	242.29531791223
0	5422	189397.342700175042	41.731432874244
0	5425	189634.421774954639	237.0790747796
0	5427	189669.033529865563	34.611754910924
0	5430	189753.832104036034	84.798574170471
0	5432	189810.527154649261	56.695050613227
0	5435	189915.078005198668	104.55085054941
0	5439	189975.602901041821	60.524895843153
0	5441	190013.799907558355	38.197006516534
0	5446	190155.305568472839	141.50566091448
0	5449	190177.328782936873	22.023214464034
0	5451	190181.521924093199	4.193141156326
0	5453	190202.294255234969	20.77233114177
0	5456	190241.60531998642	39.311064751451
0	5458	190316.306012814187	74.700692827767
0	5462	190407.24047424763	90.934461433443
0	5466	190553.138044265766	145.89757001814
0	5469	190858.068046221297	304.93000195553
0	5471	190878.265363894865	20.197317673568
0	5476	190998.327813936554	120.06245004169
0	5479	191004.547633722036	6.219819785482
0	5481	191174.996494073815	170.44886035178
0	5483	191300.481162541014	125.4846684672
0	5488	191618.726884865476	318.24572232446
0	5490	191671.537416854834	52.810531989358
0	5494	191874.99795849272	203.46054163789
0	5497	191914.970445611765	39.972487119045
0	5499	192032.436867991886	117.46642238012
0	5501	192040.606762605869	8.169894613983
0	5503	192045.431471118481	4.824708512612
0	5509	192118.251126730774	72.819655612293
0	5511	192247.762797497323	129.51167076655
0	5514	192329.640663809782	81.877866312459
0	5516	192376.345191890669	46.704528080887
0	5518	192416.478636218368	40.133444327699
0	5524	192799.092408779614	382.61377256125
0	5526	192847.579915742468	48.487506962854
0	5529	192971.98149236508	124.40157662261
0	5531	193000.895904289771	28.914411924691
0	5533	193012.969120375455	12.073216085684
0	5535	193038.63339759593	25.664277220475
0	5540	193158.42286314508	119.78946554915
0	5544	193547.502776976257	389.07991383118
0	5546	193567.664915611042	20.162138634785
0	5548	193598.162635052927	30.497719441885
0	5550	193637.696432324753	39.533797271826
0	5554	193710.052319668357	72.355887343604
0	5557	193722.202563948015	12.150244279658
0	5562	193986.513239284132	264.31067533612
0	5564	194022.778972573793	36.265733289661
0	5568	194252.490821080277	229.71184850648
0	5570	194254.962441056632	2.471619976355
0	5572	194262.998697471008	8.036256414376
0	5575	194383.629699109245	120.63100163824
0	5577	194403.357826459249	19.728127350004
0	5581	194514.846971256802	111.48914479755
0	5583	194571.069546369256	56.222575112454
0	5585	194616.665884285396	45.59633791614
0	5589	194622.823662169081	6.157777883685
0	5597	194918.288480524499	295.46481835542
0	5599	194960.661067531892	42.372587007393
0	5604	195275.295898456066	314.63483092417
0	5606	195315.685346426011	40.389447969945
0	5608	195544.174875785882	228.48952935987
0	5610	195620.170417937158	75.995542151276
0	5615	195720.657251363492	100.48683342633
0	5617	195734.484771700605	13.827520337113
0	5621	195788.775988414007	54.291216713402
0	5623	195826.725858952657	37.94987053865
0	5627	196032.821118201889	206.09525924923
0	5630	196063.680635384463	30.859517182574
0	5632	196104.701105011727	41.020469627264
0	5634	196235.853813308221	131.15270829649
0	5637	196318.484173466006	82.630360157785
0	5643	196481.592969348791	163.10879588278
0	5646	196977.10762523194	495.51465588315
0	5648	197101.52011071098	124.41248547904
0	5650	197108.751465466211	7.231354755231
0	5652	197123.549811234476	14.798345768265
0	5657	197384.18434613869	260.63453490421
0	5661	197537.087491748587	152.9031456099
0	5663	197606.473084954011	69.385593205424
0	5665	197771.275640174622	164.80255522061
0	5667	197814.001571669293	42.725931494671
0	5672	198082.361346115272	268.35977444598
0	5676	198239.53492352218	157.17357740691
0	5678	198278.887683010842	39.352759488662
0	5680	198317.151661602634	38.263978591792
0	5682	198334.651177680064	17.49951607743
0	5684	198335.083393750109	0.432216070045
0	5687	198370.557553491011	35.474159740902
0	5692	198455.104282158802	84.546728667791
0	5694	198463.936864780575	8.832582621773
0	5697	198534.157229391876	70.220364611301
0	5702	198635.968098106429	101.81086871455
0	5704	198687.705352325989	51.73725421956
0	5708	198793.149842475308	105.44449014932
0	5711	199100.641878786987	307.49203631168
0	5715	199249.72183531607	149.07995652908
0	5717	199570.921837914425	321.20000259836
0	5721	199793.030315919021	222.1084780046
0	5724	199983.226425355424	190.1961094364
0	5726	199991.670088079032	8.443662723608
0	5729	200141.440720517801	149.77063243877
0	5731	200304.290778522415	162.85005800461
0	5734	200337.80548523441	33.514706711995
0	5738	200420.317358783355	82.511873548945
0	5740	200602.412600168737	182.09524138538
0	5744	200816.085267623635	213.6726674549
0	5748	201183.705957725193	367.62069010156
[...]
1	156503	5687517.537962931639	0
1	156506	5687537.786789800403	0
1	156512	5687607.214665870091	65.809703355183
1	156515	5687660.099563119798	96.260432363058
1	156518	5687700.528226187681	123.89472801334
1	156522	5687705.048007042713	1.235599237483
1	156526	5687810.211879306928	0
1	156530	5687947.039870411063	0
1	156535	5688265.343278683499	0
1	156538	5688432.419361876187	0
1	156540	5688452.924741881403	0
1	156543	5688579.049409700631	0
1	156546	5688674.975062103173	0
1	156549	5688778.590840066216	0
1	156552	5688911.219034424288	0
1	156555	5688949.584135516807	0
1	156557	5689028.758720372474	0
1	156559	5689086.727267176	0
1	156565	5689316.235552916062	0
1	156567	5689382.317775369012	0
1	156570	5689413.955172001428	0
1	156574	5689828.499784601467	0
1	156576	5689923.315585594614	0
1	156580	5690004.571595469972	0
1	156582	5690008.30618180458	0
1	156584	5690043.781187049636	0
1	156587	5690057.773508709927	0
1	156589	5690068.666100495753	0
1	156591	5690085.891403786564	0
1	156595	5690168.850284758718	0
1	156597	5690186.324263745686	0
1	156600	5690225.64399128403	0
1	156603	5690262.050616065128	0
1	156606	5690322.457079922018	0
1	156611	5690447.930115617377	0
1	156616	5690865.043002867636	0
1	156618	5690905.082818157409	0
1	156620	5690931.514028323737	0
1	156623	5691003.495730725802	0
1	156626	5691077.70611820588	0
1	156631	5691168.514877455519	0
1	156633	5691256.635585766434	0
1	156637	5691399.215033130462	0
1	156640	5691500.887316621816	0
1	156643	5691596.005778207705	0
1	156645	5691632.244413551996	0
1	156648	5691915.605240206595	0
1	156651	5692071.339508154806	0
1	156653	5692092.628568290936	0
1	156656	5692116.234645228246	0
1	156659	5692161.933698856677	0
1	156662	5692209.323275548415	0
1	156664	5692232.832950549335	0
1	156667	5692355.944214038607	0
1	156669	5692398.206133263154	0
1	156674	5692496.574772732339	91.895776237904
1	156678	5692574.800349922497	107.29245315653
1	156681	5692578.999886062373	37.762211413763
1	156685	5692603.850414210971	21.358013395435
1	156692	5692837.713661006179	0
1	156694	5692872.081707790034	0
1	156696	5692877.351329499722	0
1	156698	5692920.355274599401	0
1	156700	5692932.524403531836	0
1	156703	5692938.241624987042	0
1	156708	5692968.039860268018	0
1	156710	5692995.824403402583	0
1	156714	5693238.378541031738	0
1	156716	5693252.054777538387	0
1	156721	5693376.700653459002	0
1	156723	5693388.522743057409	0
1	156727	5693545.724751031603	0
1	156729	5693561.686649543571	0
1	156731	5693590.054916308843	0
1	156733	5693595.281565732549	0
1	156737	5693651.208198593363	0
1	156741	5693745.629995041798	0
1	156745	5693882.563976801168	0
1	156748	5693919.828731501257	0
1	156750	5693923.181860326878	0
1	156753	5694008.745321414691	0
1	156755	5694010.489699302328	0
1	156760	5694378.613100410366	0
1	156762	5694417.64758440832	0
1	156764	5694437.845736342468	0
1	156766	5694561.504813485105	0
1	156770	5694674.170966337349	27.740665404992
1	156774	5694778.975380532294	63.443296581917
1	156779	5694913.247634201964	0
1	156781	5695012.82678843743	0
1	156783	5695040.86109816847	0
1	156789	5695198.874169858524	0
1	156792	5695392.404589873774	0
1	156795	5695681.508906066087	0
1	156798	5695734.190089451233	0
1	156800	5695834.681302969027	0
1	156802	5695880.115415504586	0
1	156807	5696043.7754414616	0
1	156810	5696155.040763478104	0
1	156812	5696274.211442332365	0
1	156814	5696298.953571665288	0
1	156816	5696391.075728769753	0
1	156820	5696400.061559948997	2.536749234581
1	156824	5696480.321268034194	0
1	156829	5696810.040536474517	0
1	156833	5697066.08884795256	0
1	156835	5697117.014156050354	0
1	156838	5697431.811358847742	0
1	156840	5697448.448389646391	0
1	156844	5697601.73363498446	0
1	156846	5697610.978405721335	0
1	156849	5697699.070618004675	0
1	156852	5697791.405806782235	0
1	156856	5697935.157620114529	0
1	156858	5697977.104421140772	0
1	156860	5698062.115195722024	0
1	156864	5698197.731167435755	0
1	156868	5698362.404451225633	0
1	156871	5698447.231439096051	0
1	156873	5698466.081101213739	0
1	156877	5698563.162333593242	0
1	156879	5698639.754125325701	0
1	156884	5698765.529894280581	0
1	156886	5698959.39593542966	0
1	156888	5698996.810196958267	0
1	156890	5699011.66376794284	0
1	156894	5699095.089326011608	0
1	156896	5699125.810919850225	0
1	156899	5699174.10171268292	0
1	156901	5699174.708236583925	0
1	156905	5699259.130088967902	0
1	156908	5699295.440608286178	0
1	156912	5699359.415883353927	0
1	156917	5699738.964794617727	0
1	156919	5699841.844643720507	0
1	156921	5699864.478199673545	0
1	156926	5700156.295478737762	0
1	156929	5700159.847703929006	0
1	156932	5700352.819512963289	0
1	156934	5700389.570730666328	0
1	156936	5700431.765300107917	0
1	156941	5700687.074253225351	0
1	156944	5700987.071659231963	0
1	156947	5701136.923041598962	0
1	156949	5701167.457262678277	0
1	156952	5701291.086818233776	0
1	156954	5701409.787828223803	0
1	156957	5701471.467587999629	0
1	156959	5701544.374581978685	0
1	156963	5701753.135331255731	0
1	156966	5701784.302868575688	0
1	156969	5701919.627479433517	0
1	156971	5701987.680372064569	0
1	156974	5702071.645295350774	0
1	156980	5702218.587448533688	0
1	156982	5702228.513566492276	0
1	156984	5702243.742348012411	0
1	156988	5702487.802053856511	0
1	156991	5702513.764909442371	0
1	156995	5702885.038176444825	0
1	156997	5702976.06936369374	0
1	157001	5703172.272479805282	0
1	157003	5703200.365470469664	0
1	157005	5703201.968158111018	0
1	157008	5703281.831425942429	0
1	157013	5703525.424796177581	0
1	157016	5703571.293830466729	0
1	157019	5703885.81075548251	0
1	157022	5703938.004719907105	0
1	157024	5703996.992516406096	0
1	157026	5704033.232030036097	0
1	157030	5704215.73763953034	0
1	157033	5704433.782050871389	0
1	157035	5704447.877094242838	0
1	157040	5705058.768933164339	0
1	157043	5705393.206800900953	0
1	157045	5705474.698026522773	0
1	157047	5705483.335193393728	0
1	157050	5705494.376771976768	0
1	157054	5705795.786900108932	0
1	157057	5705824.564570607237	0
1	157059	5705829.960759041028	0
1	157063	5705887.847915871858	0
1	157066	5705945.305878332109	0
1	157070	5706508.251702906573	0
1	157072	5706562.933225099219	0
1	157074	5706659.78341260962	0
1	157076	5706675.749271078372	0
1	157082	5706912.826881548897	0
1	157084	5706969.198545555616	0
1	157086	5707045.698633072377	0
1	157088	5707112.562718408081	0
1	157092	5707176.31492196572	0
1	157094	5707267.05909387296	0
1	157096	5707296.29564094807	0
1	157102	5707416.601700343731	0
1	157105	5707518.946793245501	0
1	157108	5707830.770812585834	0
1	157111	5708012.259904732585	0
1	157113	5708062.07643905279	0
1	157115	5708072.23585107566	0
1	157119	5708295.051399464469	0
1	157123	5708622.445467180163	0
1	157125	5708673.326153135369	0
1	157130	5708879.46515484721	0
1	157133	5709016.068544812071	0
1	157135	5709150.889099595557	0
1	157137	5709165.728914238586	0
1	157140	5709205.247228106608	0
1	157142	5709232.122802759051	0
1	157144	5709265.371015834222	0
1	157149	5709403.245696298274	0
1	157153	5709640.567231910823	0
1	157155	5709669.208806356048	0
1	157158	5709838.676294335141	0
1	157162	5709976.618166437593	0
1	157164	5710016.88254393718	0
1	157167	5710101.073957315092	0
1	157169	5710179.536700317438	0
1	157173	5710357.281593347102	0
1	157177	5710539.336165899686	0
1	157180	5710666.118849279712	0
1	157182	5710681.712453301244	0
1	157184	5710715.84996928278	0
1	157187	5710732.676348381939	0
1	157189	5710782.980581422199	0
1	157192	5710854.128560218565	0
1	157196	5710896.41914833458	37.228812866955
1	157199	5710959.800521120694	0
1	157203	5710978.116331152072	12.633622059729
1	157207	5711135.151102938776	0
1	157209	5711145.941394216176	0
1	157213	5711294.58376717992	0
1	157217	5711404.851055635566	0
1	157219	5711479.154745885591	0
1	157221	5711552.603641587154	0
1	157225	5711613.091949091032	0
1	157231	5712073.338990755375	0
1	157233	5712074.995863581478	0
1	157236	5712154.504477424043	0
1	157238	5712333.701895420333	0
1	157242	5712505.60539843529	0
1	157244	5712659.899625788178	0
1	157248	5712990.508905067156	0
1	157250	5713078.689940733109	0
1	157252	5713105.342063440507	0
1	157255	5713183.027140951081	0
1	157259	5713439.20518414939	0
1	157263	5713520.575168816502	0
1	157267	5713784.152430666137	0
1	157269	5713819.729851902185	0
1	157271	5713825.303600818352	0
1	157274	5714165.865677622226	0
1	157276	5714226.008986594314	0
1	157279	5714241.241119732636	0
1	157284	5714323.813530246993	0
1	157286	5714332.776729984759	0
1	157288	5714381.938718552133	0
1	157290	5714426.718021482055	0
1	157295	5714540.172023022849	0
1	157300	5714711.868526722375	0
1	157302	5714782.389201419397	0
1	157304	5714799.089058947111	0
1	157306	5714847.768373473756	0
1	157312	5715119.258884753202	0
1	157314	5715210.431462757752	0
1	157316	5715340.998598644081	0
1	157318	5715344.017151143283	0
1	157320	5715346.165121632329	0
1	157324	5715464.719918552202	0
1	157326	5715480.909600464996	0
1	157331	5715659.544151165265	113.53610672418
1	157334	5715711.022152626034	79.506318875146
1	157337	5715890.269799246827	0
1	157340	5715962.503975229879	0
1	157345	5716056.813047181373	0
1	157349	5716069.483956584566	0
1	157351	5716144.604665765083	0
1	157355	5716265.379403661933	0
1	157359	5716634.512442151327	0
1	157362	5716682.332591057907	0
1	157364	5716686.127265896789	0
1	157368	5716965.421934257927	0
1	157370	5716976.763846381494	0
1	157372	5716990.694329225265	0
1	157375	5717052.613750892842	0
1	157377	5717067.40087791766	0
1	157380	5717137.639512443411	0
1	157386	5717325.392047737881	0
1	157389	5717447.187724684332	0
1	157392	5717606.177410377689	0
1	157394	5717730.528381521355	0
1	157396	5717772.053378981679	0
1	157399	5717841.707405691503	0
1	157403	5718016.244744129503	0
1	157406	5718157.788677529616	0
1	157408	5718213.36784264129	0
1	157411	5718303.297788974058	0
1	157414	5718535.29060213581	0
1	157416	5718538.90922323277	0
1	157420	5718568.68124698739	0
1	157422	5718568.715531668595	0
1	157427	5718661.349848715552	0
1	157429	5718703.175081348217	0
1	157432	5718775.604690192127	0
1	157435	5718843.208836508414	0
1	157440	5718893.183364275389	0
1	157443	5718969.581710282661	0
1	157445	5719000.478996652768	0
1	157447	5719103.310760071747	0
1	157450	5719160.36802884283	0
1	157452	5719174.088481409896	0
1	157456	5719249.598749571203	0
1	157459	5719253.648229179401	0
1	157462	5719340.141208487541	0
1	157466	5719494.916155437007	0
1	157470	5719868.036264267562	0
1	157472	5719958.645218042792	0
1	157475	5720151.436873765981	0
1	157478	5720341.673044998129	0
1	157481	5720496.461510590189	0
1	157484	5720717.51066098823	0
1	157487	5720969.920954206193	0
1	157489	5721025.773628479855	0
1	157494	5721147.75443287148	0
1	157497	5721540.657930635316	0
1	157500	5721699.008132354249	0
1	157502	5721706.626752606907	0
1	157505	5721815.107038889436	0
1	157507	5721824.333277845184	0
1	157509	5721872.024032404124	0
1	157511	5721879.253564538116	0
1	157517	5722270.770471280987	0
1	157519	5722316.655466190107	0
1	157521	5722376.605534972366	0
1	157523	5722380.346394668029	0
1	157527	5722424.582193117305	8.445822168549
1	157531	5722480.584962209358	0
1	157533	5722502.188299560152	0
1	157537	5722580.393339944678	0
1	157541	5722733.306030948103	0
1	157543	5722758.797032281469	0
1	157546	5722811.979519506399	0
1	157550	5722856.004301181504	0
1	157554	5723006.050289120456	0
1	157557	5723048.269726820724	0
1	157559	5723109.028634577974	0
1	157563	5723187.406434944783	0
1	157567	5723517.011655109225	0
1	157569	5723593.17437561546	0
1	157571	5723619.262038728922	0
1	157576	5724088.600218993499	0
1	157578	5724094.790804089523	0
1	157582	5724207.637294387448	0
1	157584	5724233.958250366026	0
1	157586	5724306.138378883754	0
1	157589	5724421.994340091566	0
1	157592	5724472.091236582657	0
1	157597	5724990.172528273072	0
1	157599	5725043.063982397828	0
1	157601	5725043.627704315176	0
1	157606	5725668.049304647162	0
1	157608	5725679.26695824924	0
1	157611	5726135.787738638828	0
1	157613	5726190.270975854091	0
1	157615	5726198.118117075041	0
1	157618	5726249.967915358996	0
1	157623	5726346.495864556779	0
1	157625	5726354.118798210185	0
1	157627	5726426.466195921491	0
1	157629	5726459.517188601112	0
1	157636	5726945.183734379705	0
1	157639	5727176.964704881776	0
1	157642	5727328.035570071848	0
1	157645	5727472.479070014319	0
1	157647	5727484.915019488409	0
1	157650	5727521.434236964973	0
1	157652	5727530.853151926409	0
1	157654	5727558.597142402097	0
1	157660	5727603.384598373254	0
1	157663	5727677.877875905067	0
1	157665	5727833.847603206331	0
1	157667	5727873.573643586249	0
1	157670	5728199.361083935145	0
1	157672	5728238.439058079173	0
1	157678	5728534.65376800205	0
1	157680	5728539.164112774759	0
1	157684	5729015.383502363722	0
1	157686	5729016.711824701912	0
1	157689	5729213.286807327983	0
1	157692	5729263.30370686917	0
1	157695	5729513.370120437371	0
1	157697	5729599.016881979441	0
1	157699	5729660.673122961706	0
1	157704	5729836.605854776999	0
1	157706	5729913.04068849046	0
1	157708	5729948.676304366798	0
1	157711	5729966.3959940781	0
1	157713	5730054.660428008524	0
1	157717	5730087.666818682286	20.596317437356
1	157720	5730137.830154480602	0
1	157724	5730222.512690952243	20.465083533977
1	157727	5730334.041856433855	0
1	157732	5730417.29797979786	27.052364097035
1	157735	5730432.965166829676	29.652523023094
1	157740	5730583.063298798704	0
1	157743	5730664.881331497221	0
1	157745	5730678.399995696393	0
1	157747	5730682.658147871259	0
1	157752	5730748.488003661605	0
1	157754	5730753.279630683506	0
1	157760	5731094.532475731773	0
1	157762	5731127.287626999804	0
1	157765	5731208.956728816067	0
1	157768	5731234.018928225096	0
1	157771	5731355.705356743557	0
1	157774	5731431.209222144663	0
1	157777	5731576.468677862324	0
1	157780	5731654.619866968535	0
1	157784	5731822.688335699762	0
1	157787	5731878.597850239726	0
1	157789	5731880.983333786432	0
1	157792	5732115.660894423908	0
1	157794	5732180.746384073079	0
1	157796	5732227.763066738954	0
1	157798	5732242.09634910587	0
1	157803	5732386.247502644966	0
1	157805	5732471.768564120796	0
1	157807	5732520.557597848061	0
1	157810	5732576.221858545956	0
1	157816	5732887.211252959657	0
1	157818	5733068.933173589458	0
1	157820	5733123.079891040289	0
1	157824	5733212.659389324467	0
1	157827	5733278.673873742771	0
1	157831	5733309.917441752326	0
1	157833	5733337.174474312293	0
1	157837	5733594.344297714629	0
1	157840	5733676.108044275953	0
1	157843	5733693.289867238654	0
1	157845	5733725.450192395436	0
1	157847	5733752.631762924945	0
1	157851	5733944.519846030375	0
1	157855	5734118.76000986369	0
1	157857	5734200.419343421532	0
1	157859	5734240.611139609529	0
1	157862	5734289.270065489547	0
1	157865	5734364.347447698317	0
1	157870	5734510.975418954871	0
1	157873	5734520.924475959537	0
1	157875	5734677.39578760038	0
1	157877	5734683.823129041906	0
1	157882	5734898.395928964788	0
1	157884	5734901.79160412594	0
1	157886	5734976.219754180523	0
1	157889	5735033.360104827787	0
1	157892	5735074.22618821742	0
1	157896	5735374.927222360456	0
1	157899	5735448.395481845216	0
1	157903	5735639.849402608645	0
1	157905	5735834.447044610702	0
1	157909	5735987.227226373813	0
1	157912	5736157.406497532955	0
1	157914	5736191.863578666643	0
1	157917	5736218.735871217975	0
1	157920	5736377.782954280475	0
1	157925	5736795.47895499662	0
1	157927	5736928.369126313857	0
1	157929	5736939.691492492756	0
1	157933	5736981.842573366935	0
1	157935	5737003.601113002301	0
1	157938	5737117.914653314031	0
1	157940	5737148.138069820687	0
1	157942	5737153.469742990518	0
1	157948	5737473.691804884243	0
1	157950	5737560.054385113449	0
1	157952	5737627.587964037532	0
1	157956	5737700.758432616171	0
1	157959	5737756.70444566036	0
1	157961	5737790.343838557436	0
1	157964	5737849.809623836569	0
1	157966	5737888.174244869981	0
1	157972	5737986.44730313439	53.390170375865
1	157975	5737995.537273115716	47.937641004843
1	157978	5738002.354534248938	22.885610842369
1	157982	5738139.615235252072	75.328851173903
1	157987	5738181.11952664762	27.097293160003
1	157990	5738193.723969515215	32.409961526816
1	157994	5738304.006807127621	5.308782798662
1	157999	5738504.747433389042	0
1	158002	5738547.484648920905	0
1	158004	5738634.121738441993	0
1	158008	5738731.710632311264	0
1	158010	5738745.775740267083	0
1	158015	5739122.405938867165	0
1	158017	5739155.801874598213	0
1	158021	5739495.566117081204	0
1	158024	5739511.747970997164	0
1	158026	5739578.63668228043	0
1	158030	5739648.59044096133	0
1	158032	5739737.258486961337	0
1	158034	5739739.31082279333	0
1	158036	5739745.04719493186	0
1	158041	5739913.749615624825	0
1	158044	5739998.854288479476	0
1	158048	5740160.833159753968	0
1	158051	5740189.633275659014	0
1	158054	5740228.847490250202	0
1	158056	5740321.068718714816	0
1	158058	5740333.927943565991	0
1	158062	5740394.220167910262	0
1	158064	5740410.528845506191	0
1	158066	5740480.442903524497	0
1	158069	5740486.016194867684	0
1	158072	5740575.638940845623	0
1	158076	5740765.878284900433	0
1	158078	5740793.983524672806	0
1	158082	5740928.438827503121	0
1	158086	5741045.901528285102	0
1	158091	5741189.038840525504	0
1	158094	5741353.183050690601	0
1	158096	5741408.861029083565	0
1	158099	5741502.914466606276	0
1	158102	5741597.42540808934	0
1	158105	5741884.415129510856	0
1	158107	5741964.673637770114	0
1	158111	5742189.695763859917	0
1	158113	5742209.909640345181	0
1	158116	5742277.721603759841	0
1	158118	5742284.66250827796	0
1	158123	5742463.635771122991	0
1	158127	5742544.551339613514	0
1	158129	5742613.285592720077	0
1	158132	5742695.276252482081	0
1	158135	5742712.700641114251	0
1	158137	5742768.715450448101	0
1	158142	5743037.421875707415	0
1	158145	5743167.800307610341	0
1	158147	5743268.061320373754	0
1	158150	5743464.741325355385	0
1	158153	5743515.748609096418	0
1	158156	5743550.061876076867	0
1	158158	5743701.562426384399	0
1	158160	5743737.56425707396	0
1	158165	5743842.399356067158	0
1	158168	5743856.056277869184	0
1	158171	5743963.611621699323	0
1	158173	5744018.489748911146	0
1	158178	5744615.873194137477	0
1	158180	5744663.985647961318	0
1	158182	5744670.910510431753	0
1	158186	5744807.444805995902	0
1	158189	5744879.695917724141	0
1	158192	5745084.073150063682	0
1	158194	5745095.159434675856	0
1	158197	5745177.125085805636	0
1	158199	5745212.906092819929	0
1	158204	5745424.013615716496	0
1	158208	5745582.420529110406	0
1	158211	5745781.51317218528	0
1	158213	5745785.025624449193	0
1	158216	5746011.516966233225	0
1	158220	5746177.303066316235	0
1	158222	5746252.051428484881	0
1	158226	5746598.265328141237	0
1	158228	5746637.596229676221	0
1	158232	5747287.763583093655	0
1	158234	5747301.819943983181	0
1	158236	5747523.938518085443	0
1	158239	5747660.001436345763	0
1	158241	5747708.575096100072	0
1	158245	5747854.114424285974	0
1	158249	5747991.873685451512	0
1	158251	5748160.110840613893	0
1	158254	5748180.243591406792	0
1	158257	5748348.49871287086	0
1	158260	5748536.549169762011	0
1	158265	5748783.023161200929	0
1	158268	5749111.663479805554	0
1	158270	5749146.777616961948	0
1	158272	5749167.054693308151	0
1	158275	5749260.018025625499	0
1	158278	5749573.733324706888	0
1	158283	5749745.566817691098	0
1	158285	5749796.705465454244	0
1	158287	5749799.99159095616	0
1	158290	5749858.807451871074	0
1	158293	5749911.983104727439	0
1	158297	5750115.95841429811	0
1	158299	5750130.649774848274	0
1	158301	5750163.110870772751	0
1	158306	5750227.291713154094	0
1	158308	5750280.515377692071	0
1	158311	5750312.994990833113	0
1	158314	5750376.834397607524	0
1	158317	5750556.699285059037	0
1	158320	5750685.166850951648	0
1	158325	5750798.377400395836	0
1	158327	5750808.67260533768	0
1	158329	5750879.631810868816	0
1	158331	5750895.106364751493	0
1	158333	5750904.833268234659	0
1	158336	5750951.037687497073	0
1	158339	5750995.054484648043	0
1	158343	5751014.91689280083	7.99462823108
1	158347	5751076.175672752605	31.593380253917
1	158353	5751339.504654105686	0
1	158357	5751469.8869237831	0
1	158359	5751595.989673311937	0
1	158362	5751837.586483464962	0
1	158365	5751906.123605014032	0
1	158368	5752011.266196195326	0
1	158371	5752180.219307172672	0
1	158373	5752369.986221610852	0

