version 2
run General-0-20171214-10:33:06-380
attr configname General
attr datetime 20171214-10:33:06
attr experiment General
attr inifile carrefour.ini
attr iterationvars ""
attr iterationvarsf ""
attr measurement ""
attr network Carrefour
attr processid 380
attr repetition 0
attr replication #0
attr resultdir results
attr runnumber 0
attr seedset 0
param **.lambda 111
param **.numeroCasse 5
param **.mu 200
param **.tipoSimulazione 0

vector 0 Carrefour.coda InterrivalStat:vector ETV
attr source Interarrivals
attr title "InterArrivals, vector"
vector 1 Carrefour.coda QueueLenghtStat:vector ETV
attr source QueueLenght
attr title "Queue Lenght, vector"
vector 2 Carrefour.coda QueuingStat:vector ETV
attr source Queuing
attr title "Time in Queue, vector"
0	1	7	7
0	3	16.201457820698	9.201457820698
0	5	27.23993087957	11.038473058872
0	8	82.634590634626	55.394659755056
0	12	162.058720378215	79.424129743589
0	14	167.292038750299	5.233318372084
0	16	224.311497809954	57.019459059655
0	19	231.474144208341	7.162646398387
0	24	345.999454029337	114.525309821
0	27	629.030852294849	283.03139826551
0	31	820.718796290106	191.68794399526
0	33	862.655695724038	41.936899433932
0	37	1335.100666548719	472.44497082468
0	39	1403.790442623586	68.689776074867
0	42	1455.697951707981	51.907509084395
0	44	1491.824746647178	36.126794939197
0	46	1576.847302959314	85.022556312136
0	49	1658.751397176377	81.904094217063
0	52	1675.57699350107	16.825596324693
0	54	1752.924211674594	77.347218173524
0	56	1778.937484094212	26.013272419618
0	62	1950.565072382042	171.62758828783
0	66	2008.422215209743	57.857142827701
0	69	2387.064207738818	378.64199252907
0	72	2415.37535084944	28.311143110622
0	76	2642.874244874126	227.49889402469
0	78	2678.359874862202	35.485629988076
0	82	2898.030682059315	219.67080719711
0	84	2900.091505534918	2.060823475603
0	87	3025.939850655418	125.8483451205
0	91	3149.758047069799	123.81819641438
0	93	3178.442153535636	28.684106465837
0	97	3248.911628622666	70.46947508703
0	99	3269.720011853483	20.808383230817
0	104	3557.326809882299	287.60679802882
0	106	3592.32063410115	34.993824218851
0	110	3732.078714719338	139.75808061819
0	112	3878.664495626534	146.5857809072
0	114	3938.512938422798	59.848442796264
0	117	3981.516205251463	43.003266828665
0	120	4158.534707694223	177.01850244276
0	124	4163.150291775791	4.615584081568
0	126	4168.1597143161	5.009422540309
0	128	4377.748477738148	209.58876342205
0	131	4520.846637498442	143.09815976029
0	134	4540.012168647459	19.165531149017
0	136	4540.296586494776	0.284417847317
0	140	4635.358390484085	95.061803989309
0	145	4933.376691461185	298.0183009771
0	149	5166.337264959166	232.96057349798
0	152	5776.977532662097	610.64026770293
0	155	5824.714086050364	47.736553388267
0	158	5925.573192554415	100.85910650405
0	161	6044.485038731898	118.91184617748
0	164	6553.357315194101	508.8722764622
0	166	6743.341174488078	189.98385929398
0	168	6775.862832452408	32.52165796433
0	172	7252.841599833965	476.97876738156
0	176	7667.464289143773	414.62268930981
0	178	7747.967752806271	80.503463662498
0	180	7798.886212372761	50.91845956649
0	182	7838.126763531518	39.240551158757
0	186	7890.729352958722	52.602589427204
0	188	7948.653434649568	57.924081690846
0	190	7951.950123208718	3.29668855915
0	194	8125.726292672405	173.77616946369
0	199	8182.678163811311	56.951871138906
0	203	8446.117949674152	263.43978586284
0	206	8809.62033784851	363.50238817436
0	209	8942.909996194645	133.28965834613
0	211	8992.27551891431	49.365522719665
0	215	9257.696645361688	265.42112644738
0	217	9312.957133380539	55.260488018851
0	219	9323.40431966725	10.447186286711
0	224	9632.058744826135	308.65442515888
0	226	9651.149322652958	19.090577826823
0	228	9673.232939516681	22.083616863723
0	232	9803.246156255061	130.01321673838
0	235	9913.353852026197	110.10769577114
0	237	9957.171195009704	43.817342983507
0	240	9998.820789678316	41.649594668612
0	242	10015.256801132967	16.436011454651
0	244	10103.807601505868	88.550800372901
0	249	10279.172310927268	175.3647094214
0	253	10508.301155493099	229.12884456583
0	255	10583.581508565041	75.280353071942
0	259	10719.698973427419	136.11746486238
0	261	10829.142900606611	109.44392717919
0	263	10909.413004769011	80.2701041624
0	268	11204.656912590336	295.24390782132
0	270	11267.966933889444	63.310021299108
0	274	11357.552344960951	89.585411071507
0	277	11441.497420929447	83.945075968496
0	279	11443.131809036863	1.634388107416
0	281	11482.155585837506	39.023776800643
0	285	11599.524467298275	117.36888146077
0	288	11695.401458531801	95.876991233526
0	292	11912.237595421373	216.83613688957
0	294	11918.079361084808	5.841765663435
0	297	11995.381387648744	77.302026563936
0	300	12076.041704636928	80.660316988184
0	304	12098.894814138245	22.853109501317
0	306	12109.241796220334	10.346982082089
0	309	12293.494928426626	184.25313220629
0	311	12325.189136432743	31.694208006117
0	315	12590.042430079503	264.85329364676
0	319	12656.358886050439	66.316455970936
0	322	12739.23092223462	82.872036184181
0	324	12843.832210746287	104.60128851167
0	328	12931.352639629185	87.520428882898
0	330	12942.319879372758	10.967239743573
0	335	13242.762529771488	300.44265039873
0	338	13452.348697464121	209.58616769263
0	341	13501.611142476629	49.262445012508
0	344	13630.250118615453	128.63897613882
0	347	13962.805855285449	332.55573667
0	349	13976.026919686069	13.22106440062
0	352	14030.584920550838	54.558000864769
0	354	14038.529816518955	7.944895968117
0	357	14088.745065505595	50.21524898664
0	359	14091.161559292423	2.416493786828
0	365	14543.265889586435	452.10433029401
0	367	14734.980416978045	191.71452739161
0	369	14805.315089903677	70.334672925632
0	372	14973.307696392712	167.99260648903
0	374	14991.873244559847	18.565548167135
0	378	15039.436956366016	47.563711806169
0	380	15069.827030778013	30.390074411997
0	384	15159.66149099248	89.834460214467
0	389	15548.262213890775	388.60072289829
0	391	15714.039216219686	165.77700232891
0	395	15947.597383527489	233.5581673078
0	397	16095.450605474534	147.85322194705
0	400	16128.578426796746	33.127821322212
0	403	16368.193464306349	239.6150375096
0	406	16634.474209510033	266.28074520368
0	408	16647.88608909422	13.411879584187
0	410	16655.854308889798	7.968219795578
0	412	16659.412030613473	3.557721723675
0	414	16662.958111755303	3.54608114183
0	423	17079.27870961999	416.32059786469
0	425	17151.955462723581	72.676753103591
0	427	17249.385636145766	97.430173422185
0	431	17500.626487610649	251.24085146488
0	433	17529.675997845162	29.049510234513
0	438	17669.670549137933	139.99455129277
0	440	17676.46447302998	6.793923892047
0	443	17759.755854348962	83.291381318982
0	445	17799.80654692514	40.050692576178
0	448	17825.473767416841	25.667220491701
0	450	17839.61866473048	14.144897313639
0	453	17954.721034937889	115.10237020741
0	455	17983.739204446289	29.0181695084
0	457	17985.315046094523	1.575841648234
0	462	18067.122684776304	81.807638681781
0	468	18203.68286370063	136.56017892433
0	470	18211.55576937054	7.87290566991
0	475	18501.350915175937	289.7951458054
0	477	18505.923958823409	4.573043647472
0	480	18586.784052916996	80.860094093587
0	483	18620.392727634335	33.608674717339
0	486	18656.37462204295	35.981894408615
0	488	18690.247074731967	33.872452689017
0	491	18729.374829331273	39.127754599306
0	493	18733.893472717112	4.518643385839
0	498	19082.493484729734	348.60001201262
0	500	19156.967848794927	74.474364065193
0	505	19375.606889342998	218.63904054807
0	508	19745.494630068401	369.8877407254
0	511	19925.864859344177	180.37022927578
0	514	20014.765318370479	88.900459026302
0	516	20022.360789116348	7.595470745869
0	518	20051.800588061446	29.439798945098
0	523	20602.868964958508	551.06837689706
0	526	20649.987546294067	47.118581335559
0	529	20724.590438583007	74.60289228894
0	532	20895.811145976039	171.22070739303
0	534	20897.706384218914	1.895238242875
0	536	20910.660216115642	12.953831896728
0	540	21115.097797627119	204.43758151148
0	543	21277.507656899383	162.40985927226
0	545	21436.101239400747	158.59358250136
0	548	21534.351543105867	98.25030370512
0	552	21754.113977161612	219.76243405574
0	554	21771.980258465364	17.866281303752
0	557	21831.552765370642	59.572506905278
0	559	21874.764141094824	43.211375724182
0	561	21877.480483823043	2.716342728219
0	563	21936.735487123239	59.255003300196
0	569	21956.892946693646	20.157459570407
0	573	22053.698985335866	96.80603864222
0	575	22058.214693703859	4.515708367993
0	580	22280.685137123481	222.47044341962
0	583	22454.058045188868	173.37290806539
0	587	22538.407201175418	84.34915598655
0	589	22554.117903536683	15.710702361265
0	591	22573.909295311628	19.791391774945
0	594	22623.276205050933	49.366909739305
0	597	22650.599230887357	27.323025836424
0	602	22756.11831742741	105.51908654005
0	604	22780.824076713473	24.705759286063
0	607	22967.924975177758	187.10089846428
0	609	23009.618796827639	41.693821649881
0	611	23027.257461231738	17.638664404099
0	614	23220.574845446667	193.31738421493
0	616	23335.28067915091	114.70583370424
0	622	23498.143276813003	162.86259766209
0	625	23753.311617815334	255.16834100233
0	628	23860.988196824608	107.67657900927
0	632	24271.133456717609	410.145259893
0	635	24339.804188471156	68.670731753547
0	638	24505.815984460663	166.01179598951
0	641	24632.019895211103	126.20391075044
0	643	24637.160738130982	5.140842919879
0	645	24637.376973264511	0.216235133529
0	649	24683.959039270705	46.582066006194
0	652	24888.012324944469	204.05328567376
0	656	24898.655080877695	10.642755933226
0	659	25190.364115362427	291.70903448473
0	661	25196.062211283823	5.698095921396
0	663	25199.055135133578	2.992923849755
0	667	25333.572003624056	134.51686849048
0	670	25590.878349965146	257.30634634109
0	674	25892.17683191495	301.2984819498
0	677	26261.456553815782	369.27972190083
0	680	26427.098601880032	165.64204806425
0	683	26541.281805881498	114.18320400147
0	686	27146.232011251717	604.95020537022
0	689	27543.41464227736	397.18263102564
0	692	27619.935853635801	76.521211358441
0	694	27840.665144295356	220.72929065956
0	697	27986.351761717222	145.68661742187
0	699	28032.576753691987	46.224991974765
0	703	28557.893607066498	525.31685337451
0	707	29024.171682950031	466.27807588353
0	710	29190.338437747594	166.16675479756
0	712	29247.957007597878	57.618569850284
0	716	29589.139459354394	341.18245175652
0	718	29738.252919553436	149.11346019904
0	720	29747.735764983035	9.482845429599
0	722	29841.488724495327	93.752959512292
0	724	29858.105794532898	16.617070037571
0	727	29944.895739228272	86.789944695374
0	731	30104.52847568669	159.63273645842
0	733	30149.269619840335	44.741144153645
0	737	30221.297286515275	72.02766667494
0	741	30374.469653435223	153.17236691995
0	743	30381.033226015182	6.563572579959
0	748	30449.002783770469	67.969557755287
0	751	30822.948311412224	373.94552764176
0	754	30914.516927762107	91.568616349883
0	756	30966.669970493074	52.153042730967
0	761	31431.380911026123	464.71094053305
0	764	31487.353763257381	55.972852231258
0	766	31657.790982362587	170.43721910521
0	769	31779.698448477817	121.90746611523
0	773	32078.618190401666	298.91974192385
0	775	32190.082852291247	111.46466188958
0	778	32234.327875228784	44.245022937537
0	781	32320.46652754502	86.138652316236
0	785	32405.490741816165	85.024214271145
0	787	32454.944572272268	49.453830456103
0	789	32489.910915716687	34.966343444419
0	792	32555.480568588329	65.569652871642
0	795	32756.020453783504	200.53988519518
0	797	32859.639532053956	103.61907827045
0	799	32880.45809959595	20.818567541994
0	802	32886.912434589125	6.454334993175
0	809	33291.288478602363	404.37604401324
0	811	33345.550295907405	54.261817305042
0	813	33437.080113303238	91.529817395833
0	817	33659.321741075223	222.24162777199
0	819	33679.407311622928	20.085570547705
0	822	33733.110835106922	53.703523483994
0	825	33861.352648556581	128.24181344966
0	829	34121.604807469264	260.25215891268
0	832	34243.861864788443	122.25705731918
0	835	34376.230199894925	132.36833510648
0	838	34502.782635320302	126.55243542538
0	842	34731.842028994764	229.05939367446
0	844	34804.52822316384	72.686194169076
0	846	34844.719499700504	40.191276536664
0	848	34854.775444254152	10.055944553648
0	852	34964.106535278137	109.33109102398
0	856	35043.79520606998	79.688670791843
0	860	35206.768699034815	162.97349296484
0	862	35382.398763358757	175.63006432394
0	864	35395.673904755693	13.275141396936
0	867	35448.524789047004	52.850884291311
0	870	35656.931096074178	208.40630702717
0	874	35877.683307711752	220.75221163757
0	877	35905.43600659562	27.752698883868
0	881	36169.639503181	264.20349658538
0	884	36312.188300458212	142.54879727721
0	887	36448.781594280923	136.59329382271
0	889	36468.550280687933	19.76868640701
0	891	36516.975901254965	48.425620567032
0	895	36766.764654626647	249.78875337168
0	898	36785.798337948669	19.033683322022
0	902	37051.670851644642	265.87251369597
0	904	37129.791065479167	78.120213834525
0	907	37282.571169551975	152.78010407281
0	909	37411.116991452885	128.54582190091
0	913	37466.954426042125	55.83743458924
0	916	37532.113297522873	65.158871480748
0	918	37564.788783777399	32.675486254526
0	922	37720.051711541164	155.26292776376
0	924	37764.673406980487	44.621695439323
0	926	37923.148459588151	158.47505260766
0	932	38294.946424771815	371.79796518366
0	934	38363.055373503568	68.108948731753
0	936	38415.975360325403	52.919986821835
0	941	38582.895441151407	166.920080826
0	943	38621.456949610291	38.561508458884
0	947	38948.57514733448	327.11819772419
0	949	39083.042963049611	134.46781571513
0	951	39175.795050036803	92.752086987192
0	955	39554.194128090138	378.39907805334
0	957	39571.925044522847	17.730916432709
0	960	39737.266172505166	165.34112798232
0	962	39812.155252922464	74.889080417298
0	967	40066.104056974721	253.94880405226
0	970	40134.578931784755	68.474874810034
0	972	40185.88531500957	51.306383224815
0	975	40440.707479848286	254.82216483872
0	980	40666.281285486011	225.57380563773
0	982	40681.3193731237	15.038087637689
0	984	40695.653266294215	14.333893170515
0	989	40990.909927686265	295.25666139205
0	991	41063.186568512367	72.276640826102
0	993	41083.598376574852	20.411808062485
0	996	41094.502844508924	10.904467934072
0	998	41127.895364162587	33.392519653663
0	1000	41177.2623898606	49.367025698013
0	1004	41343.947963688195	166.68557382759
0	1010	41547.033235955679	203.08527226748
0	1013	41704.495867408612	157.46263145293
0	1016	41745.037319577843	40.541452169231
0	1018	41745.281842931842	0.244523353999
0	1020	41767.677110797272	22.39526786543
0	1024	41885.022918353181	117.34580755591
0	1028	42006.190628225208	121.16770987203
0	1030	42026.721063011868	20.53043478666
0	1033	42281.823391805824	255.10232879396
0	1035	42335.713145705842	53.889753900018
0	1038	42571.841102659574	236.12795695373
0	1042	42717.417017466401	145.57591480683
0	1046	43014.390700223691	296.97368275729
0	1049	43148.034466492726	133.64376626903
0	1051	43206.202030917084	58.167564424358
0	1054	43359.613688593836	153.41165767675
0	1056	43424.939855554896	65.32616696106
0	1058	43525.622753275764	100.68289772087
0	1060	43543.991660734063	18.368907458299
0	1065	43699.231091134193	155.23943040013
0	1068	43739.172352928838	39.941261794645
0	1073	44111.525242840908	372.35288991207
0	1075	44318.786284634992	207.26104179408
0	1078	44358.186238541067	39.399953906075
0	1080	44453.953456170578	95.767217629511
0	1082	44465.106887385261	11.153431214683
0	1084	44480.193833786582	15.086946401321
0	1091	44615.363037741663	135.16920395508
0	1093	44616.514422507065	1.151384765402
0	1095	44709.227302535187	92.712880028122
0	1099	44904.575133542013	195.34783100683
0	1101	44929.788985989365	25.213852447352
0	1103	44937.916957852348	8.127971862983
0	1106	44969.963369196235	32.046411343887
0	1109	45046.150163000606	76.186793804371
0	1112	45117.942425873895	71.792262873289
0	1115	45172.532680870927	54.590254997032
0	1118	45227.818444576288	55.285763705361
0	1122	45291.638333071423	63.819888495135
0	1124	45326.946515877522	35.308182806099
0	1126	45453.028694985521	126.082179108
0	1131	45570.090132469609	117.06143748409
0	1133	45572.464279894084	2.374147424475
0	1137	45777.582304254135	205.11802436005
0	1140	45818.421554097098	40.839249842963
0	1145	45973.418723912744	154.99716981565
0	1147	45998.360309036222	24.941585123478
0	1149	46075.070390512573	76.710081476351
0	1151	46084.222742523611	9.152352011038
0	1154	46153.331181803494	69.108439279883
0	1157	46190.40082930302	37.069647499526
0	1163	46515.605126780071	325.20429747705
0	1166	46704.427524775824	188.82239799575
0	1169	47070.077349195998	365.64982442017
0	1171	47133.561180316457	63.483831120459
0	1173	47141.08965518352	7.528474867063
0	1176	47208.626244994842	67.536589811322
0	1179	47324.762916052096	116.13667105725
0	1183	47470.588396901625	145.82548084953
0	1185	47481.849726095381	11.261329193756
0	1190	47779.898291713544	298.04856561816
0	1192	47882.58303145635	102.68473974281
0	1194	47908.259576779149	25.676545322799
0	1197	48086.885797063333	178.62622028418
0	1200	48187.494472417039	100.60867535371
0	1203	48280.947552731922	93.453080314883
0	1206	48427.582360223511	146.63480749159
0	1210	48513.868309408093	86.285949184582
0	1214	48694.095555200856	180.22724579276
0	1216	48694.533803031755	0.438247830899
0	1220	48904.802037311396	210.26823427964
0	1222	48959.256830264053	54.454792952657
0	1226	49175.846503048026	216.58967278397
0	1229	49431.660230563454	255.81372751543
0	1231	49591.739268501604	160.07903793815
0	1235	50008.09986024538	416.36059174378
0	1237	50139.602509629346	131.50264938397
0	1241	50367.147607850324	227.54509822098
0	1244	50485.062236587912	117.91462873759
0	1246	50611.955521585422	126.89328499751
0	1248	50674.870387821421	62.914866235999
0	1252	50913.746454171156	238.87606634973
0	1256	51044.773557950032	131.02710377888
0	1259	51422.574585799211	377.80102784918
0	1262	51573.759578112823	151.18499231361
0	1264	51595.169959564709	21.410381451886
0	1267	51642.99362053842	47.823660973711
0	1271	51945.884509405323	302.8908888669
0	1273	52008.028526967783	62.14401756246
0	1275	52012.617828787831	4.589301820048
0	1279	52333.169701011771	320.55187222394
0	1281	52352.453567059211	19.28386604744
0	1283	52384.706770085063	32.253203025852
0	1285	52399.228590721199	14.521820636136
0	1290	52589.222654768265	189.99406404707
0	1294	52708.305903378942	119.08324861068
0	1296	52722.66946969582	14.363566316878
0	1298	52767.749014185187	45.079544489367
0	1300	52786.043640637137	18.29462645195
0	1305	52990.911952349105	204.86831171197
0	1307	52997.693523582731	6.781571233626
0	1310	53058.878069613369	61.184546030638
0	1312	53061.333566279188	2.455496665819
0	1314	53067.295541204482	5.961974925294
0	1321	53218.283208032248	150.98766682777
0	1323	53270.529441125445	52.246233093197
0	1328	53340.694446682603	70.165005557158
0	1331	53404.164276892839	63.469830210236
0	1334	53484.029508737298	79.865231844459
0	1338	53885.087564019215	401.05805528192
0	1340	53985.825435419912	100.7378714007
0	1344	54050.776779064754	64.951343644842
0	1346	54074.81255977597	24.035780711216
0	1350	54295.16579693797	220.353237162
0	1353	54413.624218238886	118.45842130092
0	1355	54420.469369942507	6.845151703621
0	1357	54528.555291680109	108.0859217376
0	1360	54577.4980130427	48.942721362591
0	1365	54854.258196551398	276.7601835087
0	1367	54925.863799443217	71.605602891819
0	1369	55058.074736852992	132.21093740977
0	1373	55138.596875013863	80.522138160871
0	1375	55151.483977797061	12.887102783198
0	1378	55188.987617349915	37.503639552854
0	1381	55253.889677323202	64.902059973287
0	1385	55474.387873402952	220.49819607975
0	1387	55477.713654027738	3.325780624786
0	1389	55480.971848480019	3.258194452281
0	1391	55504.159987892257	23.188139412238
0	1397	55863.681001771439	359.52101387918
0	1400	56038.250121794621	174.56912002318
0	1403	56058.81281645504	20.562694660419
0	1405	56187.549304849256	128.73648839422
0	1408	56277.218682663875	89.669377814619
0	1411	56322.693280630922	45.474597967047
0	1415	56554.685246280628	231.99196564971
0	1418	56659.9176764007	105.23243012007
0	1420	56735.133948751251	75.216272350551
0	1423	56776.45492845361	41.320979702359
0	1426	56844.186186671216	67.731258217606
0	1428	56884.209144369638	40.022957698422
0	1434	57170.695360613569	286.48621624393
0	1436	57175.227279560507	4.531918946938
0	1438	57176.519569778237	1.29229021773
0	1441	57229.617950023195	53.098380244958
0	1443	57275.898052585758	46.280102562563
0	1448	57407.029647370979	131.13159478522
0	1451	57586.198549502576	179.1689021316
0	1453	57683.666467870726	97.46791836815
0	1457	57931.917255629601	248.25078775887
0	1461	58104.450880228264	172.53362459866
0	1463	58125.255986425023	20.805106196759
0	1466	58188.858311282194	63.602324857171
0	1468	58202.919406270586	14.061094988392
0	1471	58500.917033496171	297.99762722559
0	1473	58594.447883355773	93.530849859602
0	1477	58722.519815938229	128.07193258246
0	1479	58735.797811428186	13.277995489957
0	1482	58765.954692090451	30.156880662265
0	1486	58945.45651493698	179.50182284653
0	1489	59070.827638631194	125.37112369421
0	1491	59092.028472837943	21.200834206749
0	1494	59157.8667287505	65.838255912557
0	1497	59269.351750117479	111.48502136698
0	1501	59337.924885250071	68.573135132592
0	1503	59454.930414355464	117.00552910539
0	1509	59859.597845378536	404.66743102307
0	1511	59951.358947725255	91.761102346719
0	1514	60100.506905901888	149.14795817663
0	1517	60249.379891293064	148.87298539118
0	1519	60304.206221663116	54.826330370052
0	1523	60382.745081603894	78.538859940778
0	1527	60413.341959158125	30.596877554231
0	1530	60577.917084979054	164.57512582093
0	1532	60796.145807076097	218.22872209704
0	1536	60951.5964217248	155.4506146487
0	1538	60996.185865785551	44.589444060751
0	1540	61024.04028235653	27.854416570979
0	1543	61075.262239780569	51.221957424039
0	1546	61130.779734369775	55.517494589206
0	1548	61153.577264886467	22.797530516692
0	1550	61261.497342079033	107.92007719257
0	1556	61445.376891958663	183.87954987963
0	1559	61515.309376796811	69.932484838148
0	1563	61600.586119525599	85.276742728788
0	1565	61625.112948013852	24.526828488253
0	1567	61701.63226852636	76.519320512508
0	1570	61753.552926679685	51.920658153325
0	1573	61837.739906469569	84.186979789884
0	1575	61882.378923498436	44.639017028867
0	1579	62008.97203813926	126.59311464082
0	1582	62156.696316748755	147.7242786095
0	1585	62189.778300921239	33.081984172484
0	1587	62200.398238526762	10.619937605523
0	1589	62216.100708597598	15.702470070836
0	1594	62380.625799640819	164.52509104322
0	1597	62676.059381008942	295.43358136812
0	1600	62725.734040127926	49.674659118984
0	1602	62744.939670680445	19.205630552519
0	1605	62772.810095784638	27.870425104193
0	1607	62793.314387904411	20.504292119773
0	1610	62885.262630137611	91.9482422332
0	1614	62927.963956803359	42.701326665748
0	1618	62979.195491246546	51.231534443187
0	1622	63097.573835036448	118.3783437899
0	1625	63225.291959269214	127.71812423277
0	1629	63331.265166717045	105.97320744783
0	1631	63335.509420797971	4.244254080926
0	1633	63356.682074102096	21.172653304125
0	1638	63910.640929716056	553.95885561396
0	1640	63981.315927995112	70.674998279056
0	1643	64264.125759278788	282.80983128368
0	1645	64316.635478644551	52.509719365763
0	1647	64334.284551583691	17.64907293914
0	1649	64369.021936144513	34.737384560822
0	1652	64408.807358684882	39.785422540369
0	1654	64445.843162089929	37.035803405047
0	1658	64492.773402262571	46.930240172642
0	1659	64497.847789219085	5.074386956514
0	1669	65030.029749483125	532.18196026404
0	1672	65115.188558099424	85.158808616299
0	1675	65196.567144596946	81.378586497522
0	1678	65228.414429497335	31.847284900389
0	1680	65290.906245276517	62.491815779182
0	1682	65307.558874658354	16.652629381837
0	1685	65330.810625444817	23.251750786463
0	1688	65344.509411128022	13.698785683205
0	1690	65378.684729896182	34.17531876816
0	1698	65565.642171822061	186.95744192588
0	1700	65625.0304502204	59.388278398339
0	1704	65865.074724763911	240.04427454351
0	1706	65870.533097393551	5.45837262964
0	1708	65873.517495427059	2.984398033508
0	1711	65984.099961021235	110.58246559418
0	1713	66005.177313971317	21.077352950082
0	1717	66086.321976800841	81.144662829524
0	1720	66238.82052665976	152.49854985892
0	1723	66301.264210896394	62.443684236634
0	1727	66360.967945161571	59.703734265177
0	1729	66431.163912910166	70.195967748595
0	1735	67104.575689504242	673.41177659408
0	1737	67384.732059547939	280.1563700437
0	1739	67396.902358558903	12.170299010964
0	1741	67465.798014034875	68.895655475972
0	1743	67478.233146626874	12.435132591999
0	1745	67487.847219263117	9.614072636243
0	1749	67502.775210652211	14.927991389094
0	1756	67729.291667198812	226.5164565466
0	1758	67733.512988495517	4.221321296705
0	1763	67839.810616299258	106.29762780374
0	1766	67875.308727404219	35.498111104961
0	1769	68209.991503782234	334.68277637801
0	1772	68248.380590864915	38.389087082681
0	1775	68360.022177343613	111.6415864787
0	1779	68528.108657467386	168.08648012377
0	1781	68563.052292225374	34.943634757988
0	1784	68612.625632986391	49.573340761017
0	1787	68863.471119231351	250.84548624496
0	1789	69018.140162466839	154.66904323549
0	1793	69068.355029665792	50.214867198953
0	1795	69229.866796284224	161.51176661843
0	1797	69236.16855189643	6.301755612206
0	1800	69286.258804666853	50.090252770423
0	1805	69399.757691981212	113.49888731436
0	1808	69465.310190400938	65.552498419726
0	1812	69654.462834512158	189.15264411122
0	1814	69700.988790788682	46.525956276524
0	1816	69753.274362649181	52.285571860499
0	1819	69859.249377220692	105.97501457151
0	1821	69878.707687066026	19.458309845334
0	1823	69889.550662406883	10.842975340857
0	1827	69957.27654422542	67.725881818537
0	1829	70012.546672735963	55.270128510543
0	1833	70125.288012325697	112.74133958973
0	1836	70184.648824740063	59.360812414366
0	1840	70281.911846465766	97.263021725703
0	1844	70410.540155558539	128.62830909277
0	1846	70447.432338034944	36.892182476405
0	1848	70451.681439782045	4.249101747101
0	1850	70463.333805668093	11.652365886048
0	1854	70544.253889535808	80.920083867715
0	1856	70590.746401900275	46.492512364467
0	1861	70763.976416597326	173.23001469705
0	1864	70862.178392028858	98.201975431532
0	1866	70914.518517646965	52.340125618107
0	1868	70935.917956932331	21.399439285366
0	1875	71292.563891335273	356.64593440294
0	1877	71368.174597277532	75.610705942259
0	1879	71432.168138610966	63.993541333434
0	1884	71904.312086866986	472.14394825602
0	1887	71982.558594692099	78.246507825113
0	1889	72073.312490747606	90.753896055507
0	1891	72123.574462794255	50.261972046649
0	1894	72229.065838476182	105.49137568193
0	1897	72272.19637492913	43.130536452948
0	1899	72279.193386661925	6.997011732795
0	1901	72291.490527434575	12.29714077265
0	1903	72295.362783124439	3.872255689864
0	1909	72411.590619466215	116.22783634178
0	1913	72582.974255814574	171.38363634836
0	1916	72629.55215106198	46.577895247406
0	1918	72657.902696387038	28.350545325058
0	1922	72731.514521967109	73.611825580071
0	1925	72788.137425218295	56.622903251186
0	1927	72828.898685075743	40.761259857448
0	1931	72906.229509186732	77.330824110989
0	1935	73264.509328861564	358.27981967483
0	1938	73620.850423902932	356.34109504137
0	1940	73622.807116313071	1.956692410139
0	1942	73739.30623339597	116.4991170829
0	1947	73951.379239999591	212.07300660362
0	1949	74048.770705733829	97.391465734238
0	1951	74066.772326735757	18.001621001928
0	1955	74193.476046458021	126.70371972226
0	1957	74238.277170802442	44.801124344421
0	1959	74264.835843415449	26.558672613007
0	1965	74497.613635484174	232.77779206873
0	1967	74577.241856552826	79.628221068652
0	1970	74625.041663048113	47.799806495287
0	1973	74671.459215083271	46.417552035158
0	1976	74769.131670030583	97.672454947312
0	1979	74854.476277023529	85.344606992946
0	1984	74962.149970368365	107.67369334484
0	1986	75017.044264458824	54.894294090459
0	1988	75057.750762166855	40.706497708031
0	1990	75109.383988886408	51.633226719553
0	1994	75444.143821329783	334.75983244337
0	1998	75603.562317439015	159.41849610923
0	2000	75674.979948448428	71.417631009413
0	2003	75741.202852453323	66.222904004895
0	2006	75761.83958378025	20.636731326927
0	2009	75822.760206123925	60.920622343675
0	2013	75952.11526019487	129.35505407094
0	2016	76069.180180584991	117.06492039012
0	2019	76165.92497158526	96.744791000269
0	2023	76415.20803269864	249.28306111338
0	2025	76458.038167419796	42.830134721156
0	2027	76470.759189070809	12.721021651013
0	2030	76576.459327332586	105.70013826178
0	2032	76604.636162610024	28.176835277438
0	2035	76665.836825758697	61.200663148673
0	2037	76681.329443658695	15.492617899998
0	2044	77020.793276704506	339.46383304581
0	2047	77253.687614692628	232.89433798812
0	2050	77385.354700980239	131.66708628761
0	2052	77387.939663876658	2.584962896419
0	2054	77402.157789278466	14.218125401808
0	2056	77501.521684383327	99.363895104861
0	2060	77573.712698071246	72.191013687919
0	2062	77682.936857170567	109.22415909932
0	2066	77824.181564818485	141.24470764792
0	2068	77826.935769182841	2.754204364356
0	2070	77830.298692934069	3.362923751228
0	2072	77837.801443070978	7.502750136909
0	2078	77904.765721096069	66.964278025091
0	2080	77910.730336634728	5.964615538659
0	2083	77950.667296590961	39.936959956233
0	2086	77951.310908197529	0.643611606568
0	2088	77981.760670733576	30.449762536047
0	2094	78075.088113577488	93.327442843912
0	2099	78274.020849267153	198.93273568967
0	2103	78484.317090544654	210.2962412775
0	2106	78664.383685207324	180.06659466267
0	2108	78713.880503091027	49.496817883703
0	2110	78784.288153686827	70.4076505958
0	2115	79321.509180229038	537.22102654221
0	2117	79377.77138936679	56.262209137752
0	2119	79434.90684102473	57.13545165794
0	2121	79442.353800911717	7.446959886987
0	2125	79528.057317755169	85.703516843452
0	2127	79542.581228317846	14.523910562677
0	2129	79566.868021008209	24.286792690363
0	2131	79588.320598949395	21.452577941186
0	2135	79620.567450567687	32.246851618292
0	2141	79712.438763175891	91.871312608204
0	2145	79760.564313578496	48.125550402605
0	2150	80096.255014100229	335.69070052173
0	2153	80325.684026670047	229.42901256982
0	2155	80350.563385788223	24.879359118176
0	2158	80409.902030625057	59.338644836834
0	2160	80430.570989069366	20.668958444309
0	2164	80547.398621374272	116.82763230491
0	2168	80562.419670008622	15.02104863435
0	2171	80779.646108662579	217.22643865396
0	2174	80871.97624496605	92.330136303471
0	2177	80926.647873901399	54.671628935349
0	2180	80996.817566196678	70.169692295279
0	2183	81327.595830293682	330.778264097
0	2185	81330.642003133329	3.046172839647
0	2187	81569.813545691831	239.1715425585
0	2191	81790.746167188997	220.93262149717
0	2194	82044.896122245538	254.14995505654
0	2197	82280.755793260892	235.85967101535
0	2201	82488.924577416174	208.16878415528
0	2203	82504.304410213773	15.379832797599
0	2205	82672.148183378856	167.84377316508
0	2207	82679.24853100788	7.100347629024
0	2213	83166.475354147444	487.22682313956
0	2216	83199.148223292778	32.672869145334
0	2218	83307.828640210323	108.68041691755
0	2221	83427.369143579147	119.54050336882
0	2223	83436.876709336289	9.507565757142
0	2226	83545.101027855387	108.2243185191
0	2228	83545.19710127832	0.096073422933
0	2232	83576.185278574602	30.988177296282
0	2234	83600.913316390415	24.728037815813
0	2236	83667.90719647098	66.993880080565
0	2239	83687.273632836508	19.366436365528
0	2241	83712.123792595926	24.850159759418
0	2247	83869.902511415477	157.77871881955
0	2249	83876.285473449114	6.382962033637
0	2252	83998.256659645284	121.97118619617
0	2256	84113.404473606551	115.14781396127
0	2259	84172.300568479016	58.896094872465
0	2261	84188.193361474115	15.892792995099
0	2265	84229.20376038366	41.010398909545
0	2267	84238.953342813109	9.749582429449
0	2272	84373.360763431263	134.40742061815
0	2275	84517.913703596872	144.55294016561
0	2279	84717.288457712196	199.37475411532
0	2281	84744.518721612108	27.230263899912
0	2285	85019.698367394394	275.17964578229
0	2288	85079.269116788241	59.570749393847
0	2292	85103.46596963331	24.196852845069
0	2294	85119.38827285533	15.92230322202
0	2296	85119.739708065984	0.351435210654
0	2301	85219.744077981407	100.00436991542
0	2303	85372.842483241622	153.09840526022
0	2306	85589.282985405162	216.44050216354
0	2308	85609.449823602151	20.166838196989
0	2313	86110.206086434083	500.75626283193
0	2316	86403.84764433732	293.64155790324
0	2318	86408.477888853522	4.630244516202
0	2320	86447.137917132403	38.660028278881
0	2324	86631.125473435703	183.9875563033
0	2326	86647.806244120354	16.680770684651
0	2328	86683.441484693475	35.635240573121
0	2332	86786.292370870305	102.85088617683
0	2337	87079.049174495517	292.75680362521
0	2339	87161.635949445414	82.586774949897
0	2341	87246.578034712201	84.942085266787
0	2344	87280.546250720992	33.968216008791
0	2347	87390.619167548387	110.07291682739
0	2350	87596.791156072608	206.17198852422
0	2352	87642.148038104995	45.356882032387
0	2357	88038.610720347596	396.4626822426
0	2361	88329.893115702656	291.28239535506
0	2364	88355.078685449567	25.185569746911
0	2366	88548.234245949439	193.15556049987
0	2368	88551.417843449729	3.18359750029
0	2370	88562.897959591127	11.480116141398
0	2375	88753.793548397298	190.89558880617
0	2377	88770.091925624451	16.298377227153
0	2379	88854.305203244401	84.21327761995
0	2383	88921.203736953707	66.898533709306
0	2385	88927.97934900901	6.775612055303
0	2387	88934.890199548618	6.910850539608
0	2392	89168.874550888185	233.98435133957
0	2397	89630.869848309307	461.99529742112
0	2399	89708.828711451184	77.958863141877
0	2403	90057.259815132538	348.43110368135
0	2405	90078.985797789622	21.725982657084
0	2407	90099.822287323217	20.836489533595
0	2410	90221.466457848858	121.64417052564
0	2413	90309.056680487934	87.590222639076
0	2415	90338.016351224361	28.959670736427
0	2417	90339.525015899658	1.508664675297
0	2424	90607.915086857795	268.39007095814
0	2427	90760.022348624413	152.10726176662
0	2429	90780.119950496273	20.09760187186
0	2431	90802.143799976893	22.02384948062
0	2434	90816.477714820102	14.333914843209
0	2436	90864.506377797308	48.028662977206
0	2438	90867.45631556405	2.949937766742
0	2442	90958.998871238283	91.542555674233
0	2445	91073.943373305047	114.94450206676
0	2451	91651.471490755035	577.52811744999
0	2453	91917.677186190447	266.20569543541
0	2457	92139.164252792729	221.48706660228
0	2459	92174.402730127522	35.238477334793
0	2461	92212.126344076846	37.723613949324
0	2463	92325.43856778414	113.31222370729
0	2465	92356.065972866218	30.627405082078
0	2467	92428.804761713438	72.73878884722
0	2468	92471.269521418619	42.464759705181
0	2469	92501.526866551351	30.257345132732
0	2470	92583.040911223551	81.5140446722
0	2471	92625.269203133985	42.228291910434
0	2488	92859.953721875122	234.68451874114
0	2493	93027.856007197606	167.90228532248
0	2495	93095.07000074764	67.213993550034
0	2499	93250.776308121326	155.70630737369
0	2501	93281.587359823	30.811051701674
0	2503	93346.335923536359	64.748563713359
0	2507	93426.635642848361	80.299719312002
0	2509	93484.040715346429	57.405072498068
0	2515	93864.930978377095	380.89026303067
0	2518	93910.70564285026	45.774664473165
0	2521	94093.442525088817	182.73688223856
0	2525	94320.393584667053	226.95105957824
0	2527	94340.850111085397	20.456526418344
0	2529	94342.616177787743	1.766066702346
0	2531	94351.273651831381	8.657474043638
0	2534	94390.000948667674	38.727296836293
0	2537	94428.382140335477	38.381191667803
0	2539	94453.443136662659	25.060996327182
0	2541	94497.552682805651	44.109546142992
0	2542	94503.254459479361	5.70177667371
0	2546	94539.888720978249	36.634261498888
0	2547	94543.362012617108	3.473291638859
0	2557	94621.718166877867	78.356154260759
0	2563	94803.360986120181	181.64281924231
0	2565	94831.606807359505	28.245821239324
0	2568	94955.584085597833	123.97727823833
0	2570	94979.683331028451	24.099245430618
0	2578	95123.095091127197	143.41176009875
0	2580	95134.749630586716	11.654539459519
0	2583	95207.095881250334	72.346250663618
0	2588	95556.460870756454	349.36498950612
0	2590	95613.365577197625	56.904706441171
0	2592	95617.283849090716	3.918271893091
0	2597	95874.820499275919	257.5366501852
0	2599	95922.030619594476	47.210120318557
0	2601	95946.433374952511	24.402755358035
0	2603	95956.756185575601	10.32281062309
0	2605	96018.35660720229	61.600421626689
0	2607	96035.574804322739	17.218197120449
0	2608	96037.385660544246	1.810856221507
0	2615	96090.245824303369	52.860163759123
0	2623	96357.524970926742	267.27914662337
0	2625	96369.683693500259	12.158722573517
0	2627	96385.382353515803	15.698660015544
0	2631	96481.652868837036	96.270515321233
0	2634	96534.49311540601	52.840246568974
0	2636	96537.042706326164	2.549590920154
0	2640	96628.747674429257	91.704968103093
0	2643	96720.363828944965	91.616154515708
0	2645	96839.643834118796	119.28000517383
0	2651	96988.090980537866	148.44714641907
0	2654	97199.418500428474	211.32751989061
0	2657	97443.315051826585	243.89655139811
0	2659	97569.037972535128	125.72292070854
0	2662	97615.924758415422	46.886785880294
0	2664	97695.077850657347	79.153092241925
0	2667	97818.65209950854	123.57424885119
0	2672	98478.810599855564	660.15850034702
0	2674	98641.357200446648	162.54660059108
0	2676	98655.183706105577	13.826505658929
0	2678	98688.708092127265	33.524386021688
0	2684	99003.187037513033	314.47894538577
0	2687	99363.941891672979	360.75485415995
0	2689	99527.561623433165	163.61973176019
0	2691	99555.939987507974	28.378364074809
0	2695	99615.573327220591	59.633339712617
0	2699	99732.933208288801	117.35988106821
0	2701	99916.013085401786	183.07987711299
0	2704	99923.563760668506	7.55067526672
0	2708	100057.941088414093	134.37732774559
0	2711	100186.677392261535	128.73630384744
0	2713	100316.24355249244	129.5661602309
0	2717	100473.301055858049	157.05750336561
0	2719	100613.788111484784	140.48705562673
0	2721	100672.552138620459	58.764027135675
0	2723	100710.673556543457	38.121417922998
0	2728	100831.460160559638	120.78660401618
0	2731	100889.122629806488	57.66246924685
0	2734	100948.554362003401	59.431732196913
0	2738	101436.228145481295	487.67378347789
0	2741	101790.994628614883	354.76648313359
0	2744	102071.240245869548	280.24561725466
0	2746	102130.469793402164	59.229547532616
0	2750	102202.963024324388	72.493230922224
0	2753	102554.586687969059	351.62366364467
0	2756	102857.03650991889	302.44982194983
0	2758	102931.316224251959	74.279714333069
0	2760	103188.248243549001	256.93201929704
0	2762	103231.771203855523	43.522960306522
0	2766	103245.999217947873	14.22801409235
0	2769	103301.23234175212	55.233123804247
0	2771	103319.168578342328	17.936236590208
0	2773	103442.245583197836	123.07700485551
0	2776	103504.155496232837	61.909913035001
0	2779	103543.298076206739	39.142579973902
0	2781	103599.068975033613	55.770898826874
0	2786	103694.593856136035	95.524881102422
0	2789	103766.349126233355	71.75527009732
0	2794	104048.925924500184	282.57679826683
0	2798	104291.671714561585	242.7457900614
0	2801	104379.592411495996	87.920696934411
0	2804	104472.659739269083	93.067327773087
0	2807	104586.435074486803	113.77533521772
0	2809	104591.027990709766	4.592916222963
0	2811	104826.565303687744	235.53731297798
0	2813	104901.530027527736	74.964723839992
0	2818	105032.130489949514	130.60046242178
0	2821	105170.011164609376	137.88067465986
0	2824	105331.932143470842	161.92097886147
0	2829	105568.945580006963	237.01343653612
0	2831	105716.298352203759	147.3527721968
0	2834	105941.960162389975	225.66181018622
0	2836	105985.826472532587	43.866310142612
0	2839	106017.157773819999	31.331301287412
0	2842	106078.667332621478	61.509558801479
0	2845	106319.390344385626	240.72301176415
0	2849	106420.541708957337	101.15136457171
0	2852	106606.487502939989	185.94579398265
0	2855	106672.856747729239	66.36924478925
0	2857	106686.163472994407	13.306725265168
0	2859	106721.606155114363	35.442682119956
0	2862	106840.212927658107	118.60677254374
0	2864	106891.576232130481	51.363304472374
0	2866	106975.820552960601	84.24432083012
0	2871	107002.377515322208	26.556962361607
0	2874	107038.907551637735	36.530036315527
0	2876	107069.817422797485	30.90987115975
0	2881	107132.570874341305	62.75345154382
0	2885	107323.385189937467	190.81431559616
0	2888	107395.180808115853	71.795618178386
0	2891	107478.584960723112	83.404152607259
0	2893	107480.632051177957	2.047090454845
0	2898	107598.656944460491	118.02489328253
0	2902	107924.971406165878	326.31446170539
0	2905	108122.530071554852	197.55866538897
0	2908	108308.638768918115	186.10869736326
0	2910	108346.817826609644	38.179057691529
0	2912	108365.291779860199	18.473953250555
0	2918	108458.8665106697	93.574730809501
0	2921	108492.342694818889	33.476184149189
0	2923	108506.711802642378	14.369107823489
0	2927	108698.140560461156	191.42875781878
0	2930	108843.619315413675	145.47875495252
0	2933	109067.901821023175	224.2825056095
0	2935	109166.718257071523	98.816436048348
0	2939	109364.772181044155	198.05392397263
0	2941	109366.044035462166	1.271854418011
0	2944	109428.76782453122	62.723789069054
0	2946	109474.835157979202	46.067333447982
0	2950	109603.219829746791	128.38467176759
0	2952	109660.183007655842	56.963177909051
0	2955	109750.854401941862	90.67139428602
0	2958	109784.267704457597	33.413302515735
0	2960	109916.332621387024	132.06491692943
0	2962	110001.651192895336	85.318571508312
0	2965	110071.235020698071	69.583827802735
0	2969	110177.246242624509	106.01122192644
0	2971	110189.463806530482	12.217563905973
0	2977	110532.758906453289	343.29509992281
0	2979	110614.630094972402	81.871188519113
0	2981	110623.827698580582	9.19760360818
0	2983	110713.602804011913	89.775105431331
0	2987	110733.19931739009	19.596513378177
0	2989	110841.149023609118	107.94970621903
0	2991	110853.807578877664	12.658555268546
0	2998	111035.128693646673	181.32111476901
0	3000	111095.086474637359	59.957780990686
0	3003	111137.564549327289	42.47807468993
0	3007	111273.331777203947	135.76722787666
0	3009	111331.181178528909	57.849401324962
0	3011	111376.861750467041	45.680571938132
0	3014	111405.536656332743	28.674905865702
0	3017	111499.055213103956	93.518556771213
0	3021	111523.370645875438	24.315432771482
0	3023	111537.027377316722	13.656731441284
0	3025	111616.947115483554	79.919738166832
0	3026	111636.109726910171	19.162611426617
0	3035	111909.938382651082	273.82865574091
0	3038	111981.688209378116	71.749826727034
0	3041	112062.191442674303	80.503233296187
0	3044	112135.576408268836	73.384965594533
0	3046	112170.759306444994	35.182898176158
0	3052	112382.035214168531	211.27590772354
0	3054	112425.130932498336	43.095718329805
0	3058	112643.867173847499	218.73624134916
0	3060	112657.901177841346	14.034003993847
0	3062	112683.052570044047	25.151392202701
0	3065	112695.004617560813	11.952047516766
0	3068	112775.085471637518	80.080854076705
0	3070	112790.723088960803	15.637617323285
0	3074	112910.23870148364	119.51561252284
0	3077	112938.2625962189	28.02389473526
0	3079	112977.088510295315	38.825914076415
0	3083	113104.854646762324	127.76613646701
0	3087	113310.781673698976	205.92702693665
0	3089	113341.404974553364	30.623300854388
0	3092	113454.290631103637	112.88565655027
0	3094	113537.851958160857	83.56132705722
0	3097	113563.757000831757	25.9050426709
0	3102	113677.496684889917	113.73968405816
0	3104	113725.592866276507	48.09618138659
0	3109	113850.17183441253	124.57896813602
0	3111	113852.843892584961	2.672058172431
0	3113	113858.229490552694	5.385597967733
0	3117	113958.45601591721	100.22652536452
0	3119	113972.028261526596	13.572245609386
0	3122	114040.613131671448	68.584870144852
0	3124	114059.641644166898	19.02851249545
0	3127	114126.569285137172	66.927640970274
0	3129	114143.840690164479	17.271405027307
0	3134	114234.648813312253	90.808123147774
0	3139	114325.243319406088	90.594506093835
0	3141	114380.7281050337	55.484785627612
0	3143	114421.816710923176	41.088605889476
0	3148	114551.727253952849	129.91054302967
0	3153	114827.397373408122	275.67011945527
0	3155	114896.979403009527	69.582029601405
0	3158	115029.516423976642	132.53702096711
0	3161	115111.218298574078	81.701874597436
0	3163	115146.318525302783	35.100226728705
0	3167	115433.815362651795	287.49683734901
0	3170	115463.711284623494	29.895921971699
0	3172	115465.43909300333	1.727808379836
0	3176	115580.880110356755	115.44101735342
0	3179	115672.486234067475	91.60612371072
0	3181	115757.102307611021	84.616073543546
0	3184	115797.448283112147	40.345975501126
0	3188	116018.612641008554	221.16435789641
0	3191	116048.402130776267	29.789489767713
0	3193	116086.857269520201	38.455138743934
0	3195	116087.313738644791	0.45646912459
0	3199	116174.169475378065	86.855736733274
0	3201	116268.751965681319	94.582490303254
0	3205	116380.234713575076	111.48274789376
0	3207	116501.125883063378	120.8911694883
0	3213	116928.382844224706	427.25696116133
0	3216	117000.685703642723	72.302859418017
0	3218	117144.18439959492	143.4986959522
0	3220	117153.761916958422	9.577517363502
0	3223	117216.670474035565	62.908557077143
0	3228	117546.269762098875	329.59928806331
0	3230	117661.21384698869	114.94408488982
0	3233	117865.675637819608	204.46179083092
0	3237	118140.423885909164	274.74824808956
0	3240	118283.734730214368	143.3108443052
0	3242	118319.677363611472	35.942633397104
0	3244	118336.846855964934	17.169492353462
0	3249	118682.892188323538	346.0453323586
0	3252	118895.44333573347	212.55114740993
0	3254	119002.297570018251	106.85423428478
0	3256	119025.552463256083	23.254893237832
0	3260	119196.814948195598	171.26248493951
0	3263	119409.732566145825	212.91761795023
0	3266	119535.37138551124	125.63881936542
0	3270	119840.981191081265	305.60980557003
0	3272	119973.58628895762	132.60509787635
0	3275	120008.294418266807	34.708129309187
0	3278	120078.210211461402	69.915793194595
0	3280	120083.72353818045	5.513326719048
0	3283	120124.885482309608	41.161944129158
0	3286	120225.892571475276	101.00708916567
0	3291	120459.889347310325	233.99677583505
0	3293	120504.089613627959	44.200266317634
0	3297	120681.965260100423	177.87564647246
0	3299	120696.17294174423	14.207681643807
0	3302	120735.962064884403	39.789123140173
0	3306	120882.612050611418	146.64998572702
0	3308	121017.509875167426	134.89782455601
0	3311	121107.477842063456	89.96796689603
0	3314	121161.75550565375	54.277663590294
0	3317	121274.002430246102	112.24692459235
0	3320	121405.589159987109	131.58672974101
0	3322	121425.953018138182	20.363858151073
0	3324	121429.764858011019	3.811839872837
0	3330	121790.701788945761	360.93693093474
0	3332	121793.254003210598	2.552214264837
0	3334	121824.57454838317	31.320545172572
0	3337	122039.738334036278	215.16378565311
0	3339	122051.742879848102	12.004545811824
0	3342	122095.175967076932	43.43308722883
0	3348	122473.856067664983	378.68010058805
0	3350	122575.981345416535	102.12527775155
0	3353	122642.422582545126	66.441237128591
0	3356	122681.629743536116	39.20716099099
0	3358	122719.554878274228	37.925134738112
0	3360	122779.836294620098	60.28141634587
0	3364	122873.683838338306	93.847543718208
0	3369	123074.218029481238	200.53419114293
0	3371	123079.417826794179	5.199797312941
0	3375	123342.1236702757	262.70584348152
0	3377	123452.637762778036	110.51409250234
0	3379	123529.233681885319	76.595919107283
0	3383	123597.79989597778	68.566214092461
0	3385	123645.944847600338	48.144951622558
0	3387	123701.051424382476	55.106576782138
0	3392	123897.867851327242	196.81642694477
0	3394	123940.98034134627	43.112490019028
0	3398	124170.215117087122	229.23477574085
0	3401	124237.236430727159	67.021313640037
0	3403	124248.82920281331	11.592772086151
0	3405	124272.848989254056	24.019786440746
0	3411	124510.060285596183	237.21129634213
0	3414	124588.26536477334	78.205079177157
0	3416	124662.011546875892	73.746182102552
0	3420	124741.66375432417	79.652207448278
0	3422	124746.671637832769	5.007883508599
0	3424	124749.980449646658	3.308811813889
0	3426	124763.122842029737	13.142392383079
0	3428	124828.416340751382	65.293498721645
0	3435	125128.193800696177	299.77745994479
0	3437	125190.014363355941	61.820562659764
0	3439	125216.783506295629	26.769142939688
0	3442	125260.744755468457	43.961249172828
0	3447	125491.023332160387	230.27857669193
0	3449	125501.830733731123	10.807401570736
0	3453	125857.730312760084	355.89957902896
0	3455	125873.177758691817	15.447445931733
0	3459	126269.996689260832	396.81893056901
0	3462	126415.447241747431	145.4505524866
0	3464	126457.462168254231	42.0149265068
0	3466	126503.512640892878	46.050472638647
0	3468	126560.277772834735	56.765131941857
0	3470	126575.69935106716	15.421578232425
0	3472	126630.758268795207	55.058917728047
0	3479	126774.332655170858	143.57438637565
0	3481	126819.951562934562	45.618907763704
0	3486	126968.813140321948	148.86157738739
0	3488	126969.850746028594	1.037605706646
0	3491	127052.954431013859	83.103684985265
0	3494	127098.402199351701	45.447768337842
0	3499	127323.839391325365	225.43719197366
0	3501	127359.124669578188	35.285278252823
0	3503	127412.73930915852	53.614639580332
0	3507	127562.060382175539	149.32107301702
0	3509	127631.220299656836	69.159917481297
0	3513	128108.613178393947	477.39287873711
0	3515	128166.537266312537	57.92408791859
0	3518	128304.824765884815	138.28749957228
0	3521	128473.596380371771	168.77161448696
0	3524	128604.635065862549	131.03868549078
0	3528	129041.082051159492	436.44698529694
0	3530	129247.669676074856	206.58762491536
0	3532	129272.165729560797	24.496053485941
0	3537	129399.342535562936	127.17680600214
0	3540	129565.567586723038	166.2250511601
0	3542	129622.952429051686	57.384842328648
0	3545	129759.420744271674	136.46831521999
0	3547	129793.41430082687	33.993556555196
0	3549	129830.99509653695	37.58079571008
0	3553	129943.504252265566	112.50915572862
0	3555	129982.181046534237	38.676794268671
0	3560	130083.33613095153	101.15508441729
0	3562	130088.168865594521	4.832734642991
0	3567	130303.299264929516	215.13039933499
0	3569	130344.067074550115	40.767809620599
0	3572	130362.115333887761	18.048259337646
0	3575	130375.295365443585	13.180031555824
0	3579	130572.068334651997	196.77296920841
0	3581	130644.49012359513	72.421788943133
0	3583	130788.600451755165	144.11032816004
0	3588	130901.087313491382	112.48686173622
0	3592	130997.939389601209	96.852076109827
0	3594	131127.344406371059	129.40501676985
0	3596	131153.745656271188	26.401249900129
0	3599	131218.491943621525	64.746287350337
0	3602	131264.749081652659	46.257138031134
0	3606	131461.895143381823	197.14606172916
0	3609	131497.625948958395	35.730805576572
0	3611	131549.491062405308	51.865113446913
0	3613	131586.464016046487	36.972953641179
0	3617	131693.240483190901	106.77646714441
0	3620	131759.060315600239	65.819832409338
0	3622	131771.704092752513	12.643777152274
0	3625	131914.246827392966	142.54273464045
0	3627	131928.714464390899	14.467636997933
0	3630	131965.140631864181	36.426167473282
0	3632	132060.947290062367	95.806658198186
0	3636	132119.529916495307	58.58262643294
0	3641	132240.257228899192	120.72731240388
0	3645	132291.041079771583	50.783850872391
0	3651	132896.448624980136	605.40754520855
0	3654	132981.668009695606	85.21938471547
0	3657	133385.44284995421	403.7748402586
0	3659	133493.804365710553	108.36151575634
0	3662	133919.845635447049	426.0412697365
0	3665	134184.615158772387	264.76952332534
0	3668	134452.535890603744	267.92073183136
0	3670	134531.314247874248	78.778357270504
0	3673	134601.83849280695	70.524244932702
0	3677	134680.138899807139	78.300407000189
0	3679	134706.027309775173	25.888409968034
0	3683	134727.300648085091	21.273338309918
0	3686	134842.363656706949	115.06300862186
0	3689	134924.751594868087	82.387938161138
0	3693	135113.483566741215	188.73197187313
0	3696	135182.067344798861	68.583778057646
0	3698	135183.326468751605	1.259123952744
0	3702	135289.793097843941	106.46662909234
0	3705	135433.663051884445	143.8699540405
0	3707	135566.572799057441	132.909747173
0	3710	135784.693752142755	218.12095308531
0	3713	135890.796500290848	106.10274814809
0	3716	135935.458490218606	44.661989927758
0	3720	136249.952827397285	314.49433717868
0	3723	136357.456527913274	107.50370051599
0	3725	136434.460163220804	77.00363530753
0	3727	136680.679007469762	246.21884424896
0	3729	136692.712262656253	12.033255186491
0	3732	136846.833302597642	154.12103994139
0	3737	137010.060434677444	163.2271320798
0	3739	137070.410409539206	60.349974861762
0	3743	137215.660662453519	145.25025291431
0	3745	137233.091499017833	17.430836564314
0	3750	137524.360660831426	291.26916181359
0	3753	137651.661761801956	127.30110097053
0	3755	137659.241480027616	7.57971822566
0	3757	137669.063299976374	9.821819948758
0	3760	137698.75669043825	29.693390461876
0	3762	137902.607887000811	203.85119656256
0	3764	137959.243358910226	56.635471909415
0	3766	137997.827764164245	38.584405254019
0	3767	138002.655483467217	4.827719302972
0	3771	138082.682938825395	80.027455358178
0	3782	138426.207476472381	343.52453764699
0	3785	138550.106633940673	123.89915746829
0	3789	138725.688436273779	175.58180233311
0	3791	138743.006619546792	17.318183273013
0	3793	138749.950267745876	6.943648199084
0	3797	138946.831842017305	196.88157427143
0	3799	138992.205080570441	45.373238553136
0	3803	139161.278255831871	169.07317526143
0	3807	139431.160327737065	269.88207190519
0	3809	139436.600221609572	5.439893872507
0	3811	139438.967838197496	2.367616587924
0	3813	139516.929472240519	77.961634043023
0	3817	139719.673378527869	202.74390628735
0	3821	139814.40159635257	94.728217824701
0	3824	139834.423551300067	20.021954947497
0	3826	139886.637828075757	52.21427677569
0	3830	139953.996228573189	67.358400497432
0	3832	139956.397600096315	2.401371523126
0	3834	139995.785473545549	39.387873449234
0	3838	140038.168584029337	42.383110483788
0	3841	140135.48525264797	97.316668618633
0	3843	140139.793986712034	4.308734064064
0	3845	140144.848066550537	5.054079838503
0	3850	140315.252966501591	170.40489995105
0	3852	140342.582706493143	27.329739991552
0	3858	140708.725161071528	366.14245457839
0	3860	140798.618298934094	89.893137862566
0	3863	140915.756996950601	117.13869801651
0	3866	140961.476777739785	45.719780789184
0	3869	141075.185494967649	113.70871722786
0	3872	141170.156124480889	94.97062951324
0	3875	141213.363338771447	43.207214290558
0	3878	141312.31989314447	98.956554373023
0	3880	141348.364567836639	36.044674692169
0	3884	141462.806003437299	114.44143560066
0	3887	141512.773337119404	49.967333682105
0	3889	141537.749362841284	24.97602572188
0	3892	141649.472430459424	111.72306761814
0	3895	141788.431637334654	138.95920687523
0	3897	141802.472036652496	14.040399317842
0	3900	142035.050297704898	232.5782610524
0	3902	142059.685232381359	24.634934676461
0	3905	142079.749994515876	20.064762134517
0	3912	142276.543498280573	196.7935037647
0	3914	142284.798044881504	8.254546600931
0	3917	142317.48158155411	32.683536672606
0	3919	142336.75587632064	19.27429476653
0	3923	142488.630734400249	151.87485807961
0	3925	142500.551457842617	11.920723442368
0	3929	142687.902610283835	187.35115244122
0	3931	142762.837372508467	74.934762224632
0	3935	142983.068442421719	220.23106991325
0	3939	143088.495391303302	105.42694888158
0	3942	143257.654716305452	169.15932500215
0	3944	143393.828201673774	136.17348536832
0	3946	143409.832303813392	16.004102139618
0	3949	143460.080317488467	50.248013675075
0	3952	143632.459237321655	172.37891983319
0	3955	143774.377558157962	141.91832083631
0	3957	143802.070626619475	27.693068461513
0	3961	143870.181665193883	68.111038574408
0	3966	143990.877921641824	120.69625644794
0	3968	144077.693127108034	86.81520546621
0	3970	144082.50022968861	4.807102580576
0	3972	144090.691319950208	8.191090261598
0	3976	144206.617823739001	115.92650378879
0	3979	144235.375158249262	28.757334510261
0	3983	144326.597923970231	91.222765720969
0	3985	144367.841701369333	41.243777399102
0	3988	144456.580357688844	88.738656319511
0	3991	144621.919724163299	165.33936647446
0	3996	144744.123296553314	122.20357239001
0	3998	144787.195736191393	43.072439638079
0	4002	144972.79444694657	185.59871075518
0	4004	145105.568899721704	132.77445277513
0	4007	145155.756629556059	50.187729834355
0	4009	145330.277460763262	174.5208312072
0	4011	145351.007034837188	20.729574073926
0	4017	145590.772496538776	239.76546170159
0	4020	145717.963108235786	127.19061169701
0	4023	146041.877999817669	323.91489158188
0	4025	146123.404828034504	81.526828216835
0	4027	146250.112132848947	126.70730481444
0	4030	146331.969932461132	81.857799612185
0	4033	146465.257270915502	133.28733845437
0	4038	146783.752646956905	318.4953760414
0	4040	146900.679508091963	116.92686113506
0	4043	147003.0298417408	102.35033364884
0	4046	147067.186320659302	64.156478918502
0	4050	147366.63112309328	299.44480243398
0	4053	147503.965125627466	137.33400253419
0	4055	147583.176823054314	79.211697426848
0	4058	147696.732469013736	113.55564595942
0	4060	147769.212692042304	72.480223028568
0	4062	147835.72321694797	66.510524905666
0	4065	147913.333743118536	77.610526170566
0	4070	148138.442229881643	225.10848676311
0	4072	148259.558201839996	121.11597195835
0	4076	148391.571017510499	132.0128156705
0	4078	148408.429438831041	16.858421320542
0	4082	148599.218703896265	190.78926506522
0	4084	148614.453015649572	15.234311753307
0	4087	148729.400419654522	114.94740400495
0	4091	148834.85406850985	105.45364885533
0	4094	148845.278913624602	10.424845114752
0	4097	148976.661966648758	131.38305302416
0	4101	149520.169142891311	543.50717624255
0	4103	149527.552494462454	7.383351571143
0	4106	149607.654261427401	80.101766964947
0	4110	149865.602171182224	257.94790975482
0	4113	150052.312919091971	186.71074790975
0	4115	150149.616081870765	97.303162778794
0	4119	150221.770335188427	72.154253317662
0	4121	150224.080168371832	2.309833183405
0	4124	150383.539477885954	159.45930951412
0	4126	150399.239439918905	15.699962032951
0	4130	150517.532565109194	118.29312519029
0	4132	150569.2682926439	51.735727534706
0	4135	150601.980076467885	32.711783823985
0	4137	150663.727828461412	61.747751993527
0	4141	150758.449818773535	94.721990312123
0	4143	150763.706430596069	5.256611822534
0	4146	150824.634950649858	60.928520053789
0	4148	150827.560321556284	2.925370906426
0	4151	150875.124786415296	47.564464859012
0	4153	150915.572040251248	40.447253835952
0	4158	150956.537213592564	40.965173341316
0	4163	151156.926294632362	200.3890810398
0	4165	151160.393130058974	3.466835426612
0	4167	151179.152379875451	18.759249816477
0	4169	151208.353178003402	29.200798127951
0	4174	151336.75477334992	128.40159534652
0	4180	151738.912498147635	402.15772479771
0	4183	151806.110295750406	67.197797602771
0	4185	152019.880989885501	213.77069413509
0	4188	152145.069787891578	125.18879800608
0	4193	152296.582842706926	151.51305481535
0	4196	152537.282777482691	240.69993477577
0	4198	152570.870222524135	33.587445041444
0	4200	152654.27087597316	83.400653449025
0	4204	153047.661465099363	393.3905891262
0	4207	153230.747888071409	183.08642297205
0	4209	153298.18141334362	67.433525272211
0	4212	153350.155748934499	51.974335590879
0	4214	153373.450495265645	23.294746331146
0	4217	153424.20530057781	50.754805312165
0	4219	153498.496204545115	74.290903967305
0	4224	153690.979755586468	192.48355104135
0	4226	153699.959415671962	8.979660085494
0	4228	153705.663742080658	5.704326408696
0	4232	154023.913640291557	318.2498982109
0	4235	154080.791958035382	56.878317743825
0	4237	154131.137367008634	50.345408973252
0	4241	154152.503168427775	21.365801419141
0	4244	154316.5211129849	164.01794455712
0	4247	154341.328854729298	24.807741744398
0	4250	154391.344740248151	50.015885518853
0	4252	154449.330232025868	57.985491777717
0	4254	154478.366099199169	29.035867173301
0	4255	154498.67153735041	20.305438151241
0	4266	154673.331108869194	174.65957151878
0	4269	154894.202336162177	220.87122729298
0	4272	155157.332813764715	263.13047760254
0	4274	155228.206797402967	70.873983638252
0	4279	155368.181209205512	139.97441180255
0	4281	155467.436871878337	99.255662672825
0	4284	155566.327287984973	98.890416106636
0	4286	155600.150572723401	33.823284738428
0	4290	155689.887937679834	89.737364956433
0	4292	155715.279191813671	25.391254133837
0	4294	155755.430267058448	40.151075244777
0	4298	155791.443324613426	36.013057554978
0	4300	155840.757022211477	49.313697598051
0	4305	156137.341329954832	296.58430774335
0	4309	156290.651250422746	153.30992046791
0	4311	156292.431484064214	1.780233641468
0	4315	156740.059576571522	447.62809250731
0	4317	156844.807640535454	104.74806396393
0	4320	156950.158477343416	105.35083680796
0	4322	157317.142951695015	366.9844743516
0	4325	157488.246618490505	171.10366679549
0	4328	157644.349627420662	156.10300893016
0	4332	157753.504622493467	109.1549950728
0	4335	157812.148208782479	58.643586289012
0	4338	158047.870966885137	235.72275810266
0	4340	158111.635390143699	63.764423258562
0	4343	158250.14995823591	138.51456809221
0	4346	158325.424815778694	75.274857542784
0	4348	158345.761775161995	20.336959383301
0	4350	158466.252532928506	120.49075776651
0	4354	158515.283005886267	49.030472957761
0	4359	158746.336058809792	231.05305292353
0	4361	158755.969942772387	9.633883962595
0	4365	158836.64724864151	80.677305869123
0	4368	158997.292106669013	160.6448580275
0	4370	159005.142715367175	7.850608698162
0	4372	159025.880142082053	20.737426714878
0	4374	159046.67815666145	20.798014579397
0	4376	159140.666971739415	93.988815077965
0	4382	159209.406054775614	68.739083036199
0	4384	159210.026740778507	0.620686002893
0	4387	159295.181242695508	85.154501917001
0	4393	159456.815087565541	161.63384487003
0	4396	159564.298951737304	107.48386417176
0	4398	159738.417067196157	174.11811545885
0	4400	159745.576899631924	7.159832435767
0	4402	159775.077667249123	29.500767617199
0	4407	159830.58790105935	55.510233810227
0	4409	159857.503288133812	26.915387074462
0	4415	160535.488820975916	677.9855328421
0	4417	160609.150499570651	73.661678594735
0	4420	160683.726635977586	74.576136406935
0	4423	160804.377729765217	120.65109378763
0	4427	161311.544029841667	507.16630007645
0	4429	161347.127976616796	35.583946775129
0	4431	161360.996321916093	13.868345299297
0	4434	161414.793705323125	53.797383407032
0	4436	161454.164393903657	39.370688580532
0	4439	161551.39443097336	97.230037069703
0	4442	161604.483420087751	53.088989114391
0	4447	161742.519122487556	138.0357023998
0	4449	161827.419945011295	84.900822523739
0	4453	161979.452632603665	152.03268759237
0	4456	162045.304898255982	65.852265652317
0	4458	162103.965638371441	58.660740115459
0	4461	162228.498510001923	124.53287163048
0	4463	162246.949851797992	18.451341796069
0	4466	162274.729665185887	27.779813387895
0	4468	162324.451707841	49.722042655113
0	4471	162408.680418659568	84.228710818568
0	4473	162457.860903783928	49.18048512436
0	4478	162599.618380866749	141.75747708282
0	4480	162694.225531113471	94.607150246722
0	4488	163027.241665438577	333.01613432511
0	4491	163182.605563961192	155.36389852261
0	4493	163287.858309892576	105.25274593138
0	4496	163395.355344238538	107.49703434596
0	4499	163582.725837386475	187.37049314794
0	4501	163645.467464460043	62.741627073568
0	4505	163718.209950204098	72.742485744055
0	4507	163825.643848385537	107.43389818144
0	4511	163961.181753378404	135.53790499287
0	4513	164000.343947844322	39.162194465918
0	4517	164141.591884940419	141.2479370961
0	4521	164241.838343364191	100.24645842377
0	4523	164284.567408080304	42.729064716113
0	4528	164603.462736803499	318.8953287232
0	4531	165030.255008521123	426.79227171762
0	4534	165102.006936223578	71.751927702455
0	4536	165111.901212374607	9.894276151029
0	4539	165333.561518125757	221.66030575115
0	4543	165519.586766639891	186.02524851413
0	4545	165551.931659971463	32.344893331572
0	4548	165643.973272604375	92.041612632912
0	4550	165821.395939430862	177.42266682649
0	4555	166021.881137564065	200.4851981332
0	4557	166075.919931564593	54.038794000528
0	4560	166275.937759015741	200.01782745115
0	4562	166333.746466965582	57.808707949841
0	4566	166553.123035252923	219.37656828734
0	4568	166800.281464159776	247.15842890685
0	4572	166837.524220699815	37.242756540039
0	4574	166865.195449254288	27.671228554473
0	4576	166912.945814899928	47.75036564564
0	4579	166989.483801871865	76.537986971937
0	4582	167138.196771804893	148.71296993303
0	4585	167158.058038678985	19.861266874092
0	4590	167269.817235357959	111.75919667897
0	4593	167345.617983757806	75.800748399847
0	4596	167381.639106735221	36.021122977415
0	4600	167483.429104247928	101.78999751271
0	4603	167542.970848578438	59.54174433051
0	4606	167728.849503418957	185.87865484052
0	4608	167812.138852481277	83.28934906232
0	4611	168102.325341660708	290.18648917943
0	4613	168129.311041463642	26.985699802934
0	4615	168133.567077466357	4.256036002715
0	4620	168264.853700791345	131.28662332499
0	4624	168591.319226711971	326.46552592063
0	4626	168611.993358993411	20.67413228144
0	4628	168889.630729955963	277.63737096255
0	4630	168963.321170870718	73.690440914755
0	4635	169101.641682686041	138.32051181532
0	4638	169168.081356469091	66.43967378305
0	4640	169197.150339220584	29.068982751493
0	4643	169500.982190836352	303.83185161577
0	4645	169540.865087145882	39.88289630953
0	4647	169549.989996936504	9.124909790622
0	4650	169645.397365915141	95.407368978637
0	4657	169936.516121816778	291.11875590164
0	4659	169954.310636656331	17.794514839553
0	4662	170202.268096793757	247.95746013743
0	4664	170280.167333177356	77.899236383599
0	4666	170399.934787160437	119.76745398308
0	4670	170423.419801884682	23.485014724245
0	4672	170446.805600984033	23.385799099351
0	4677	170670.47052040946	223.66491942543
0	4681	171087.260852402069	416.79033199261
0	4684	171095.031937557497	7.771085155428
0	4686	171102.018748436012	6.986810878515
0	4690	171307.522882325291	205.50413388928
0	4692	171512.557175704577	205.03429337929
0	4695	171646.266303282954	133.70912757838
0	4697	171710.723913574683	64.457610291729
0	4699	171772.010793939373	61.28688036469
0	4703	171805.178168833341	33.167374893968
0	4705	171907.19562594491	102.01745711157
0	4708	171914.233535612943	7.037909668033
0	4713	172650.409694951434	736.17615933849
0	4717	173005.700196866782	355.29050191535
0	4719	173063.442724620543	57.742527753761
0	4721	173078.377388611198	14.934663990655
0	4724	173102.239816223438	23.86242761224
0	4726	173106.315330914477	4.075514691039
0	4731	173192.494166430363	86.178835515886
0	4733	173289.655921833252	97.161755402889
0	4735	173324.631207026985	34.975285193733
0	4737	173335.662574364104	11.031367337119
0	4742	173491.163509807854	155.50093544375
0	4744	173508.880371938551	17.716862130697
0	4747	173586.834150953805	77.953779015254
0	4750	173620.269140675998	33.434989722193
0	4752	173637.719164503935	17.450023827937
0	4756	173910.145256404975	272.42609190104
0	4759	173934.324255441719	24.178999036744
0	4761	173939.589692526667	5.265437084948
0	4767	174171.980170466969	232.3904779403
0	4770	174305.544467293757	133.56429682679
0	4773	174436.290251750246	130.74578445649
0	4775	174457.689866849418	21.399615099172
0	4778	174560.45532619432	102.7654593449
0	4781	174896.252730422031	335.79740422771
0	4783	174941.321986800433	45.069256378402
0	4786	175008.686363431363	67.36437663093
0	4789	175098.862350781041	90.175987349678
0	4793	175305.050469892299	206.18811911126
0	4795	175340.86389978693	35.813429894631
0	4800	175465.177143588767	124.31324380184
0	4802	175472.332332958858	7.155189370091
0	4806	175535.017758249746	62.685425290888
0	4808	175548.661867395031	13.644109145285
0	4811	175670.722784206031	122.060916811
0	4813	175741.914273487476	71.191489281445
0	4817	175778.635570662323	36.721297174847
0	4819	175807.932225784696	29.296655122373
0	4821	175815.482690062839	7.550464278143
0	4825	175951.673630083036	136.1909400202
0	4827	175976.722860132509	25.049230049473
0	4831	176131.421079434113	154.6982193016
0	4834	176185.132993932802	53.711914498689
0	4836	176188.258660274814	3.125666342012
0	4839	176252.481101082903	64.222440808089
0	4843	176580.676167899485	328.19506681658
0	4846	176694.591300556374	113.91513265689
0	4849	176800.537699022149	105.94639846578
0	4852	176872.732479315589	72.19478029344
0	4858	177100.577121693171	227.84464237758
0	4861	177229.999699275933	129.42257758276
0	4863	177236.057883599041	6.058184323108
0	4866	177283.965276614227	47.907393015186
0	4869	177369.782963715503	85.817687101276
0	4873	177573.511669303606	203.7287055881
0	4875	177619.066940365635	45.555271062029
0	4877	177731.901511882205	112.83457151657
0	4879	177740.897894754163	8.996382871958
0	4884	177811.767295031696	70.869400277533
0	4886	177833.662885957235	21.895590925539
0	4889	177908.832387003809	75.169501046574
0	4891	178042.463228326746	133.63084132294
0	4893	178044.122463578714	1.659235251968
0	4895	178055.185079696184	11.06261611747
0	4896	178101.489156054631	46.304076358447
0	4904	178184.425794637707	82.936638583076
0	4906	178257.38944594389	72.963651306183
0	4915	178486.342419322232	228.95297337834
0	4917	178522.335272546656	35.992853224424
0	4920	178661.091381014556	138.7561084679
0	4923	178789.457470384534	128.36608936998
0	4927	179036.280298082066	246.82282769753
0	4929	179108.653945987257	72.373647905191
0	4931	179157.516516497197	48.86257050994
0	4933	179210.469527786773	52.953011289576
0	4936	179227.727693078803	17.25816529203
0	4939	179236.509590078043	8.78189699924
0	4942	179390.164031638592	153.65444156055
0	4944	179442.862102696536	52.698071057944
0	4947	179457.130431373934	14.268328677398
0	4950	179541.085094522274	83.95466314834
0	4954	179743.326127999217	202.24103347694
0	4956	179752.771476476213	9.445348476996
0	4958	179753.609299729008	0.837823252795
0	4959	179778.478437075865	24.869137346857
0	4969	179981.332775557736	202.85433848187
0	4971	179982.426993568386	1.09421801065
0	4977	180419.712823728057	437.28583015967
0	4980	180689.019730660694	269.30690693264
0	4983	180788.06459810264	99.044867441946
0	4985	180823.96260641437	35.89800831173
0	4988	180854.064293675056	30.101687260686
0	4990	180975.34058825063	121.27629457557
0	4994	181155.253664189945	179.91307593932
0	4996	181280.893181871587	125.63951768164
0	4998	181309.945122924292	29.051941052705
0	5000	181350.596033722718	40.650910798426
0	5005	181479.633301932559	129.03726820984
0	5007	181548.713525812521	69.080223879962
0	5010	181583.505315501504	34.791789688983
0	5014	181686.740393201306	103.2350776998
0	5018	181934.358131630706	247.6177384294
0	5021	182052.971142605224	118.61301097452
0	5023	182059.636287809875	6.665145204651
0	5025	182090.60353459049	30.967246780615
0	5029	182259.134274558081	168.53073996759
0	5031	182290.893104513754	31.758829955673
0	5035	182411.795400708815	120.90229619506
0	5037	182424.12402941842	12.328628709605
0	5042	182612.109800311505	187.98577089309
0	5045	182787.284408049971	175.17460773847
0	5047	182825.427912572084	38.143504522113
0	5050	182891.853045136537	66.425132564453
0	5052	182949.165760087722	57.312714951185
0	5055	183004.337885812015	55.172125724293
0	5058	183037.080340824884	32.742455012869
0	5062	183169.945410510476	132.86506968559
0	5067	183460.792838523377	290.8474280129
0	5070	183537.157888325281	76.365049801904
0	5072	183538.651486243811	1.49359791853
0	5075	183786.990439755743	248.33895351193
0	5079	184151.032760079797	364.04232032405
0	5082	184297.891477151605	146.85871707181
0	5084	184336.275479222671	38.384002071066
0	5087	184455.364300796707	119.08882157404
0	5090	184718.485105274472	263.12080447776
0	5094	184893.927285076915	175.44217980244
0	5096	184963.087334020222	69.160048943307
0	5098	185016.019233583087	52.931899562865
0	5101	185102.54059860533	86.521365022243
0	5103	185141.083976648881	38.543378043551
0	5107	185374.439237933554	233.35526128467
0	5110	185436.436691216916	61.997453283362
0	5112	185548.078819439938	111.64212822302
0	5115	185563.066393688026	14.987574248088
0	5119	185801.828277070004	238.76188338198
0	5121	185857.607057379968	55.778780309964
0	5124	185933.89877253775	76.291715157782
0	5126	185981.922618582138	48.023846044388
0	5130	186015.289425535177	33.366806953039
0	5132	186016.315020560397	1.02559502522
0	5135	186064.448234996072	48.133214435675
0	5141	186311.760006563209	247.31177156714
0	5145	186623.371988042439	311.61198147923
0	5148	186672.416082482615	49.044094440176
0	5151	186814.007730407726	141.59164792511
0	5153	186850.66634304508	36.658612637354
0	5156	186892.055010614755	41.388667569675
0	5160	187019.91950307349	127.86449245874
0	5162	187088.831528567576	68.912025494086
0	5164	187157.508526753937	68.676998186361
0	5167	187210.891215440573	53.382688686636
0	5171	187261.972927130687	51.081711690114
0	5173	187315.631747243485	53.658820112798
0	5175	187337.468715666904	21.836968423419
0	5177	187397.141833958571	59.673118291667
0	5179	187449.703260375919	52.561426417348
0	5180	187477.270645743108	27.567385367189
0	5184	187642.137589411069	164.86694366796
0	5194	187883.801646215356	241.66405680429
0	5198	188175.190569037003	291.38892282165
0	5202	188413.598355324627	238.40778628762
0	5205	188667.395255168582	253.79689984396
0	5208	188866.148884724557	198.75362955598
0	5210	188896.30542867477	30.156543950213
0	5212	188993.757501710409	97.452073035639
0	5216	189264.098978190568	270.34147648016
0	5220	189522.007746592664	257.9087684021
0	5223	189858.567039415313	336.55929282265
0	5225	189877.536617312418	18.969577897105
0	5229	190095.588535876544	218.05191856413
0	5232	190185.810032542153	90.221496665609
0	5235	190459.097816913527	273.28778437137
0	5237	190585.232563221513	126.13474630799
0	5240	190767.708466331591	182.47590311008
0	5244	190963.643217550824	195.93475121923
0	5246	191126.771284993123	163.1280674423
0	5248	191169.819947936982	43.048662943859
0	5251	191205.834528454579	36.014580517597
0	5254	191308.857515526368	103.02298707179
0	5256	191369.639568095587	60.782052569219
0	5259	191435.417366473884	65.777798378297
0	5264	191628.167544676762	192.75017820288
0	5268	191699.512431033188	71.344886356426
0	5270	191787.415071350673	87.902640317485
0	5272	191797.00054978036	9.585478429687
0	5276	191900.07901846288	103.07846868252
0	5279	192067.573642525466	167.49462406259
0	5282	192168.843624449553	101.26998192409
0	5284	192217.769493552577	48.925869103024
0	5289	192572.980171024395	355.21067747182
0	5291	192913.844885560324	340.86471453593
0	5295	193028.49752197397	114.65263641365
0	5297	193053.775440257131	25.277918283161
0	5300	193156.487170592984	102.71173033585
0	5302	193180.761536715462	24.274366122478
0	5305	193378.656974792434	197.89543807697
0	5309	193691.947192575043	313.29021778261
0	5311	193702.475859022403	10.52866644736
0	5313	193721.432277216248	18.956418193845
0	5318	193903.109795902596	181.67751868635
0	5321	194042.43921023651	139.32941433391
0	5323	194077.72518626625	35.28597602974
0	5325	194102.20964385678	24.48445759053
0	5330	194178.160910426661	75.951266569881
0	5332	194196.110491731318	17.949581304657
0	5337	194545.038719135561	348.92822740424
0	5340	194917.786430116211	372.74771098065
0	5343	195124.582296624386	206.79586650818
0	5345	195175.035311026641	50.453014402255
0	5347	195214.726163027344	39.690852000703
0	5351	195299.517987273581	84.791824246237
0	5355	195373.025112053357	73.507124779776
0	5357	195408.428687442181	35.403575388824
0	5359	195546.152402073851	137.72371463167
0	5362	195612.58461178032	66.432209706469
0	5365	195699.6479223423	87.06331056198
0	5368	195853.570382037362	153.92245969506
0	5372	195927.212028009134	73.641645971772
0	5375	196028.23308857531	101.02106056618
0	5378	196125.530505579691	97.297417004381
0	5382	196248.787725504601	123.25721992491
0	5384	196346.880615530449	98.092890025848
0	5386	196421.112535002198	74.231919471749
0	5388	196452.575237606088	31.46270260389
0	5392	196594.625018798102	142.04978119201
0	5396	196605.188126004302	10.5631072062
0	5398	196683.206979432561	78.018853428259
0	5403	196882.366179818373	199.15920038581
0	5405	196924.528419823785	42.162240005412
0	5407	196956.622077821028	32.093657997243
0	5410	197076.610212830809	119.98813500978
0	5413	197140.863379880921	64.253167050112
0	5416	197195.410375934798	54.546996053877
0	5421	197467.689271953468	272.27889601867
0	5423	197610.53837846083	142.84910650736
0	5425	197712.944188923516	102.40581046269
0	5428	197837.446475877817	124.5022869543
0	5432	198138.149878633187	300.70340275537
0	5434	198185.717093806927	47.56721517374
0	5436	198202.046649289452	16.329555482525
0	5439	198288.882054289278	86.835404999826
0	5445	198518.753377712434	229.87132342316
0	5447	198547.01710224328	28.263724530846
0	5449	198563.685824920144	16.668722676864
0	5452	198604.352231381616	40.666406461472
0	5456	198815.766750112616	211.414518731
0	5459	198843.362722983025	27.595972870409
0	5463	199067.14007970644	223.77735672341
0	5465	199097.884352952513	30.744273246073
0	5467	199100.993106348128	3.108753395615
0	5469	199111.508046880597	10.514940532469
0	5472	199116.638532920692	5.130486040095
0	5475	199200.726134472721	84.087601552029
0	5480	199314.121618529876	113.39548405716
0	5482	199365.457195021468	51.335576491592
0	5485	199467.229838236482	101.77264321501
0	5489	199590.60853168031	123.37869344383
0	5491	199780.673954309173	190.06542262886
0	5496	200009.229847959736	228.55589365056
0	5498	200146.82350307984	137.5936551201
0	5500	200161.159440412808	14.335937332968
0	5504	200235.665888059158	74.50644764635
0	5506	200296.445731928779	60.779843869621
0	5509	200419.543813984624	123.09808205584
0	5511	200474.112857639181	54.569043654557
0	5517	200911.690506056255	437.57764841707
0	5519	201008.172687970461	96.482181914206
0	5522	201120.828273136516	112.65558516606
0	5524	201276.46253709748	155.63426396096
0	5526	201306.373698396871	29.911161299391
0	5530	201362.48444162792	56.110743231049
0	5532	201373.332634517535	10.848192889615
0	5535	201404.473410933109	31.140776415574
0	5538	201507.322608941834	102.84919800872
0	5542	201556.620577278329	49.297968336495
0	5544	201637.562076088521	80.941498810192
0	5547	201705.586009480761	68.02393339224
0	5549	201726.495500450785	20.909490970024
0	5554	201895.578885737121	169.08338528634
0	5557	201908.311392621137	12.732506884016
0	5559	201933.358720699566	25.047328078429
0	5561	201934.298206843062	0.939486143496
0	5564	201946.035825262214	11.737618419152
0	5570	202251.261372849689	305.22554758747
0	5573	202416.63558323989	165.3742103902
0	5575	202453.693329534282	37.057746294392
0	5579	202554.885763964829	101.19243443055
0	5581	202598.369449405321	43.483685440492
0	5583	202601.567057829089	3.197608423768
0	5585	202605.807243226023	4.240185396934
0	5588	202647.489682942796	41.682439716773
0	5593	202686.974169527994	39.484486585198
0	5595	202700.516527953155	13.542358425161
0	5599	202877.435276238111	176.91874828496
0	5604	203238.729546082727	361.29426984462
0	5606	203314.480721468342	75.751175385615
0	5609	203403.061475711506	88.580754243164
0	5611	203532.209292913208	129.1478172017
0	5613	203562.374108731934	30.164815818726
0	5619	203994.767082945606	432.39297421367
0	5621	204065.164876234962	70.397793289356
0	5624	204114.43153170984	49.266655474878
0	5627	204403.0859897375	288.65445802766
0	5631	204471.379522758644	68.293533021144
0	5633	204552.399012123104	81.01948936446
0	5636	204703.318242786706	150.9192306636
0	5638	204704.182877624323	0.864634837617
0	5643	205058.387966796355	354.20508917203
0	5646	205182.081931355684	123.69396455933
0	5648	205302.555907795473	120.47397643979
0	5650	205321.946675423531	19.390767628058
0	5652	205443.036784118757	121.09010869523
0	5658	205866.762245669155	423.7254615504
0	5661	206074.533961376004	207.77171570685
0	5664	206537.248218462145	462.71425708614
0	5666	206630.891475918962	93.643257456817
0	5668	206656.492958405314	25.601482486352
0	5671	206754.527778118778	98.034819713464
0	5674	206806.818464033979	52.290685915201
0	5676	206852.314374803294	45.495910769315
0	5678	206909.797477857956	57.483103054662
0	5682	207063.533610700121	153.73613284217
0	5685	207114.297175444795	50.763564744674
0	5689	207259.217946355366	144.92077091057
0	5692	207330.043020270296	70.82507391493
0	5697	207711.854281829303	381.81126155901
0	5699	207732.497743647924	20.643461818621
0	5703	208084.885197164326	352.3874535164
0	5705	208175.735517970428	90.850320806102
0	5708	208226.191590095139	50.456072124711
0	5710	208310.049488914717	83.857898819578
0	5714	208373.312157469361	63.262668554644
0	5716	208375.102247743108	1.790090273747
0	5720	208430.512595668033	55.410347924925
[...]
2	35109	1259121.900568770443	101.83477019634
2	35113	1259230.507548844201	72.077794357942
2	35119	1259437.285967188613	0
2	35123	1259680.666314207968	0
2	35126	1259719.844306227144	0
2	35128	1259833.959948977339	0
2	35131	1259981.341735850752	0
2	35133	1260031.313456085824	0
2	35135	1260070.344872697529	0
2	35137	1260126.119017024462	0
2	35141	1260146.577068729723	1.632335158421
2	35144	1260246.270128160537	0
2	35148	1260304.046837747564	0
2	35152	1260363.215393666245	0
2	35155	1260451.300259222544	0
2	35159	1260613.815474144834	0
2	35162	1260895.121238188188	0
2	35164	1260928.074506374016	0
2	35166	1260965.641666687786	0
2	35170	1261057.408686764283	0
2	35173	1261175.622486971416	0
2	35178	1261360.141727518853	0
2	35180	1261408.314751612349	0
2	35183	1261420.166041771257	0
2	35185	1261505.29797703379	0
2	35187	1261512.528630138641	0
2	35193	1261809.014450513187	0
2	35195	1261821.200601117601	0
2	35197	1261864.530198380247	0
2	35199	1261970.154742391888	0
2	35204	1262194.82977602662	0
2	35206	1262211.488499153983	0
2	35208	1262342.037965119263	0
2	35212	1262409.218325464952	0
2	35215	1262520.506008911645	0
2	35217	1262569.81196613899	0
2	35222	1262705.547988807196	0
2	35224	1262779.936507089824	0
2	35227	1262800.656692249474	0
2	35231	1262844.084003612819	0
2	35234	1263033.599716202929	0
2	35238	1263349.998882993181	0
2	35241	1263406.8303447356	0
2	35243	1263416.735523586637	0
2	35246	1263609.73225478011	0
2	35249	1263620.68254714807	0
2	35251	1263689.118583449197	0
2	35254	1263739.510904440256	0
2	35256	1263785.510284976165	0
2	35259	1263807.606258520316	0
2	35263	1263843.859617083703	0
2	35266	1263905.60806930568	0
2	35271	1264379.432702017858	0
2	35274	1264628.64443753835	0
2	35277	1264658.515199717997	0
2	35279	1264761.26029767083	0
2	35283	1265250.091005918463	0
2	35286	1265366.082332115184	0
2	35288	1265500.891867027078	0
2	35292	1265738.819103639531	0
2	35295	1265889.255907142274	0
2	35297	1265930.531757393407	0
2	35300	1266006.393333089135	0
2	35303	1266086.509283749552	0
2	35306	1266281.936549661946	0
2	35309	1266410.164014841208	0
2	35313	1266626.88661673009	0
2	35315	1266776.420466396782	0
2	35317	1266846.409617928914	0
2	35320	1266872.415231262713	0
2	35325	1267188.266401215687	0
2	35328	1267321.490248420612	0
2	35330	1267380.855354219172	0
2	35334	1267569.450576592127	0
2	35336	1267575.415740414317	0
2	35338	1267618.905678793847	0
2	35343	1267761.218075946603	0
2	35345	1267802.271780065583	0
2	35348	1267994.445151579152	0
2	35350	1268002.587820675726	0
2	35353	1268117.395856406933	0
2	35356	1268189.916050491801	0
2	35359	1268219.83947975108	0
2	35361	1268221.416455541811	0
2	35364	1268238.902348200166	0
2	35367	1268244.512710154846	0
2	35372	1268342.185987761182	0
2	35375	1268429.348329227122	0
2	35377	1268440.095734390894	0
2	35379	1268477.583034029127	0
2	35382	1268495.304859624584	0
2	35385	1268570.656562507448	0
2	35387	1268571.708273995217	0
2	35392	1268785.542737462384	0
2	35394	1268903.665720206956	0
2	35397	1269000.493564904382	0
2	35402	1269248.347601501339	0
2	35406	1269722.231201897315	0
2	35408	1269761.178444973811	0
2	35412	1269923.157337710441	0
2	35414	1270059.540059381564	0
2	35416	1270128.580110784355	0
2	35418	1270130.113687209042	0
2	35421	1270277.825026022928	0
2	35424	1270378.83113114364	0
2	35426	1270486.266605947974	0
2	35430	1270535.174563574261	12.643641646053
2	35434	1270643.655230737343	0
2	35439	1270843.476288001192	0
2	35441	1270845.90936748833	0
2	35443	1270880.950618087706	0
2	35446	1271012.253079028039	0
2	35449	1271021.816134015758	0
2	35451	1271202.527382009608	0
2	35455	1271348.832484105705	0
2	35458	1271389.130370609605	0
2	35460	1271397.95268051162	0
2	35466	1272003.251004479135	0
2	35469	1272114.7591966762	0
2	35471	1272168.961122053574	0
2	35474	1272229.639555950903	0
2	35476	1272234.116642567153	0
2	35479	1272345.716893421585	0
2	35482	1272376.008382902953	0
2	35486	1272566.792511168325	0
2	35488	1272589.217859227305	0
2	35491	1272636.603731012813	0
2	35497	1272847.186938478795	0
2	35499	1272900.916020870578	0
2	35501	1272975.503546461846	0
2	35505	1273163.529637983477	0
2	35507	1273176.408870023054	0
2	35511	1273330.268168126467	0
2	35514	1273531.393162289213	0
2	35517	1273610.647757285606	0
2	35520	1273923.738495072215	0
2	35524	1274102.31854716841	0
2	35527	1274174.460082039734	0
2	35530	1274643.124572217241	0
2	35532	1274829.493296323518	0
2	35534	1274920.165231808972	0
2	35536	1274934.505906445592	0
2	35540	1275020.473593169153	0
2	35542	1275085.095498090493	0
2	35546	1275307.553796468089	0
2	35549	1275353.512919686023	0
2	35554	1275700.129086967033	0
2	35556	1275763.749870149009	0
2	35558	1275798.598589175298	0
2	35562	1275885.082698675785	0
2	35564	1275990.180400237935	0
2	35566	1275997.236129986776	0
2	35568	1276011.105046990511	0
2	35572	1276225.255443842699	134.13664901852
2	35576	1276313.682779239258	0
2	35581	1276378.578994648525	0
2	35583	1276387.024270359324	0
2	35586	1276450.181965600249	0
2	35589	1276494.967748558251	0
2	35592	1276572.938497479713	0
2	35594	1276626.629733228915	0
2	35596	1276627.555906849735	0
2	35600	1276701.933241210823	0
2	35602	1276737.165541929965	0
2	35611	1276963.269330419041	170.20927183968
2	35614	1277023.460450598561	186.42782458261
2	35618	1277048.031979724177	197.87060041012
2	35622	1277141.413925710257	259.94756300603
2	35625	1277156.050322873928	265.43839367596
2	35628	1277165.242690967766	264.75185224277
2	35631	1277192.832017176432	154.22645766942
2	35634	1277207.722229125246	144.84540212943
2	35638	1277379.298005601569	0
2	35641	1277426.841984190403	0
2	35644	1277445.225667900209	0
2	35650	1277673.716825063687	0
2	35653	1277783.493167071564	0
2	35655	1277831.601725665752	0
2	35657	1277853.047132536405	0
2	35660	1277991.539119852338	0
2	35662	1278029.271937382082	0
2	35667	1278154.958357550627	0
2	35670	1278245.058467703507	0
2	35674	1278341.490333257194	0
2	35676	1278382.581578276856	0
2	35679	1278537.453227598684	0
2	35681	1278551.323701833298	0
2	35684	1278573.495799566204	0
2	35686	1278605.999843895867	0
2	35689	1278730.297584302464	0
2	35692	1278745.001382198629	0
2	35694	1278794.288083588401	0
2	35698	1278898.095679597795	0
2	35700	1278907.745572555402	0
2	35703	1278963.975322489536	0
2	35707	1278998.409862842475	0
2	35710	1279076.831474424655	0
2	35712	1279115.181231449946	0
2	35717	1279312.843672675849	0
2	35719	1279340.274953808075	0
2	35722	1279379.902921896662	0
2	35724	1279402.334798900498	0
2	35731	1279762.234231260536	0
2	35733	1279764.674066771541	0
2	35737	1279891.927542355554	0
2	35740	1279946.82781775387	0
2	35743	1280177.85128347743	0
2	35745	1280205.393298059378	0
2	35748	1280316.543774296795	0
2	35750	1280414.783341263702	0
2	35754	1280550.718779775615	0
2	35756	1280601.306108503165	0
2	35761	1280826.152902603036	0
2	35763	1280885.630719685274	0
2	35765	1280924.828896222368	0
2	35769	1281100.586483391156	0
2	35771	1281115.182789246541	0
2	35773	1281133.663681189704	0
2	35776	1281233.295791752377	0
2	35778	1281278.281971049658	0
2	35781	1281363.345591859384	0
2	35787	1281714.907509112136	0
2	35789	1281773.487537829227	0
2	35791	1281782.977906347014	0
2	35796	1281958.830695090111	0
2	35798	1282059.752645832073	0
2	35801	1282246.307113457979	0
2	35805	1282373.589572139964	0
2	35809	1282552.502809687173	0
2	35811	1282688.593823991021	0
2	35814	1282907.64899885487	0
2	35818	1283287.135424068013	0
2	35820	1283296.560626611526	0
2	35823	1283434.099625796327	0
2	35826	1283731.482116092135	0
2	35828	1283785.799442795334	0
2	35831	1283790.640776929295	0
2	35834	1283894.861857478649	0
2	35836	1283897.543716902129	0
2	35840	1283961.739228821494	0
2	35842	1283976.224515872145	0
2	35844	1283976.512874052103	0
2	35848	1284184.089037820864	0
2	35852	1284239.941833449016	0
2	35854	1284240.676085325326	0
2	35856	1284248.140618126488	0
2	35860	1284396.526832004854	0
2	35866	1284674.536744660139	0
2	35869	1284794.484883099829	0
2	35872	1284826.185725162831	0
2	35874	1284852.442028609507	0
2	35878	1285174.99577648129	0
2	35880	1285189.285326801085	0
2	35884	1285568.441700457947	0
2	35887	1285681.749064166439	0
2	35889	1285749.017262800425	0
2	35893	1286046.287277793384	0
2	35895	1286122.418581371801	0
2	35898	1286246.193716461216	0
2	35900	1286374.957908484703	0
2	35903	1286456.879797384437	0
2	35905	1286469.305606331266	0
2	35908	1286484.463526678978	0
2	35910	1286491.772347548235	0
2	35916	1286585.561977330715	0
2	35919	1286634.285588015992	0
2	35921	1286672.748785904657	0
2	35923	1286719.387096079531	0
2	35927	1286845.372230867238	0
2	35931	1286951.300589849356	0
2	35935	1287431.062792441076	0
2	35937	1287498.350834862007	0
2	35939	1287509.733689826114	0
2	35944	1287786.978282484751	0
2	35947	1288039.167258527182	0
2	35949	1288084.518087290823	0
2	35953	1288293.822843674225	0
2	35955	1288299.621730949458	0
2	35957	1288323.443928357888	0
2	35959	1288341.443539812521	0
2	35961	1288351.66272950996	0
2	35965	1288566.516908535849	0
2	35969	1288703.909366706714	0
2	35971	1288704.171861739895	0
2	35973	1288732.855256439849	0
2	35979	1288875.504628558019	0
2	35981	1289021.419890693588	0
2	35985	1289205.616115094943	0
2	35987	1289278.500511627203	0
2	35989	1289316.803653692025	0
2	35991	1289370.281332058692	0
2	35996	1289437.334760055997	0
2	35999	1289491.248588252045	0
2	36004	1289716.756986282377	0
2	36006	1289766.816153605114	0
2	36009	1289815.134593271298	0
2	36011	1289853.368597958816	0
2	36013	1289890.192087486858	0
2	36017	1290071.80979809586	0
2	36020	1290092.612464924871	0
2	36023	1290179.56578094575	0
2	36025	1290219.955129812788	0
2	36027	1290235.609413697467	0
2	36032	1290278.869659097122	41.379757711203
2	36036	1290368.52108120367	123.29553951863
2	36039	1290382.091894726399	58.032451810898
2	36043	1290490.992688377172	0
2	36045	1290527.162671939664	0
2	36049	1290581.684797824233	4.440432433354
2	36056	1291034.249294712572	0
2	36058	1291182.94700592929	0
2	36060	1291197.811568978696	0
2	36062	1291279.256139567482	0
2	36068	1291597.940402435828	0
2	36070	1291609.25999075147	0
2	36073	1291655.365400342289	0
2	36076	1291905.496647933512	0
2	36078	1291966.014681396379	0
2	36081	1292135.496674049269	0
2	36084	1292184.994336042854	0
2	36086	1292288.274937512361	0
2	36090	1292390.748081910626	0
2	36094	1292708.461673683561	0
2	36096	1292928.202876854894	0
2	36098	1292931.933774768399	0
2	36104	1293229.365984833786	0
2	36106	1293236.579253254676	0
2	36108	1293253.276933912905	0
2	36111	1293285.45983966066	0
2	36114	1293455.108173485305	0
2	36117	1293537.174804547812	0
2	36119	1293560.418730073391	0
2	36121	1293662.889443373685	0
2	36125	1293714.925009078294	20.329786517269
2	36129	1293822.311110560708	79.964565296723
2	36136	1294120.824063717963	0
2	36138	1294138.583937645677	0
2	36140	1294251.126905774694	0
2	36144	1294780.342449994892	0
2	36148	1294936.452861954824	0
2	36150	1295045.398679252597	0
2	36152	1295119.812127996864	0
2	36156	1295238.273064226756	0
2	36158	1295272.179092849335	0
2	36162	1295351.820918408495	0
2	36164	1295376.549005051866	0
2	36167	1295403.932668550011	0
2	36169	1295416.057509247538	0
2	36171	1295424.288183948443	0
2	36178	1295731.869505282681	0
2	36181	1295828.396282430645	0
2	36184	1295920.7433151502	0
2	36186	1295959.475199555913	0
2	36190	1296078.556039989482	0
2	36192	1296151.142666764698	0
2	36195	1296175.086212517942	0
2	36197	1296180.705874087549	0
2	36199	1296195.987345867568	0
2	36201	1296371.169220798627	0
2	36208	1296572.231825077275	0
2	36211	1296648.573957938175	0
2	36213	1296976.737003470713	0
2	36215	1296998.990234875204	0
2	36217	1297119.028329819446	0
2	36222	1297256.023288382372	0
2	36224	1297283.341649647198	0
2	36229	1297638.880689250169	0
2	36231	1297702.054082325138	0
2	36235	1297867.662046810086	0
2	36238	1298127.077441985021	0
2	36240	1298198.075168192025	0
2	36243	1298299.274856362293	0
2	36247	1298583.212900463675	0
2	36249	1298595.804817571802	0
2	36252	1298716.097705167469	0
2	36255	1298805.755573311753	0
2	36258	1299075.830681965046	0
2	36261	1299292.955217129634	0
2	36263	1299333.288172351102	0
2	36268	1299592.293435185123	0
2	36270	1299597.783613133933	0
2	36273	1299772.212609094268	0
2	36275	1299779.055438789839	0
2	36279	1299973.411529946199	0
2	36281	1300055.887821325989	0
2	36283	1300073.829528489437	0
2	36288	1300140.707091962392	0
2	36290	1300163.017394491903	0
2	36292	1300189.333333764252	0
2	36296	1300390.011120773718	0
2	36301	1300614.033023832504	0
2	36303	1300708.100317226596	0
2	36307	1300831.810738850582	0
2	36310	1301033.312074600136	0
2	36312	1301060.523435753547	0
2	36314	1301072.218091471978	0
2	36319	1301352.675739009179	0
2	36321	1301393.452558641681	0
2	36323	1301403.518407405984	0
2	36327	1301494.099566919576	0
2	36329	1301708.361272261671	0
2	36331	1301827.494692682997	0
2	36333	1301847.618701542392	0
2	36342	1302105.107885416338	234.93211564903
2	36345	1302157.85398383405	278.18790565145
2	36348	1302163.488106890421	214.00627932726
2	36352	1302189.972314985819	172.21230024663
2	36356	1302248.062114147413	197.63203011947
2	36360	1302294.150704110474	210.86510929764
2	36364	1302309.38617707679	143.34947832587
2	36367	1302345.285640974805	133.96574517163
2	36371	1302445.451756077078	190.09319569489
2	36374	1302453.559093676686	148.29047628346
2	36377	1302476.82989128627	37.778020737732
2	36381	1302617.691848045975	121.34652104402
2	36384	1302622.6007145478	0
2	36388	1302684.916125630068	0
2	36393	1302815.275405109358	0
2	36395	1302822.066416339972	0
2	36397	1302871.305708435871	0
2	36400	1302957.977489254485	0
2	36402	1302980.102828307056	0
2	36408	1303072.977850552162	0
2	36411	1303142.902496027893	0
2	36413	1303179.359659335205	0
2	36417	1303350.538451951441	0
2	36419	1303378.985846877723	0
2	36421	1303405.941677246655	0
2	36423	1303437.099113724559	0
2	36426	1303559.931204107295	0
2	36430	1303607.984565306651	39.020965418202
2	36436	1303681.149769046042	0
2	36438	1303712.953319884643	0
2	36442	1303988.156349063232	0
2	36445	1304046.173406265751	0
2	36447	1304077.94142583274	0
2	36450	1304208.849488803403	0
2	36453	1304240.140994272424	0
2	36455	1304242.313522599598	0
2	36457	1304276.221307296503	0
2	36461	1304293.128441257447	9.228324592338
2	36464	1304378.55459071174	0
2	36468	1304549.700839621041	16.899376544331
2	36472	1304588.451758010621	36.048347751346
2	36477	1304746.604586429069	0
2	36481	1305080.567629666104	0
2	36483	1305091.465117086535	0
2	36486	1305247.000049965956	0
2	36489	1305352.917182315145	0
2	36493	1305572.792502482634	0
2	36497	1305732.884479449691	0
2	36499	1305858.358961161173	0
2	36501	1305918.362313563618	0
2	36503	1305920.568456160447	0
2	36508	1305971.535872543591	0
2	36512	1306228.565978581614	0
2	36514	1306358.527985436625	0
2	36518	1306488.394342399418	0
2	36520	1306728.492755061569	0
2	36522	1306750.377352896973	0
2	36524	1306814.300505422431	0
2	36528	1306915.66364759836	0
2	36530	1306978.156513480027	0
2	36532	1307005.587269781508	0
2	36536	1307074.118104949989	62.354722259808
2	36541	1307297.363239462986	0
2	36543	1307372.028512355432	0
2	36546	1307403.143830002712	0
2	36551	1307689.014858710197	0
2	36553	1307693.194037130902	0
2	36555	1307726.013252474498	0
2	36557	1307728.278483207816	0
2	36561	1307752.95794222591	15.078634838412
2	36565	1307829.455954502791	0
2	36567	1307950.761930413003	0
2	36570	1308011.111770890308	0
2	36573	1308095.68760448203	0
2	36577	1308160.311317283326	0
2	36582	1308379.324874565017	0
2	36585	1308485.910811652091	0
2	36587	1308506.142287828324	0
2	36592	1308861.751071889414	0
2	36595	1309124.00752342569	0
2	36598	1309547.03433942246	0
2	36600	1309608.804739739025	0
2	36603	1309663.158032917786	0
2	36606	1309781.040559737082	0
2	36608	1309832.906701519553	0
2	36612	1309899.663719463783	0
2	36616	1310062.193216414796	0
2	36618	1310085.635187829505	0
2	36622	1310323.292031290783	0
2	36624	1310476.854311882286	0
2	36627	1310721.080899655351	0
2	36629	1310757.975811592664	0
2	36633	1310883.499591814908	0
2	36635	1310921.292727709368	0
2	36638	1311023.475004241502	0
2	36641	1311095.841107460751	0
2	36645	1311286.126172521267	0
2	36648	1311387.189125404249	0
2	36651	1311445.057192567825	0
2	36653	1311503.416133931879	0
2	36655	1311524.941525887651	0
2	36658	1311568.037133333018	0
2	36662	1311721.290269850276	0
2	36665	1311771.045385879947	0
2	36668	1312001.27100166233	0
2	36672	1312141.231966551529	0
2	36674	1312151.542940858966	0
2	36676	1312157.550439037215	0
2	36681	1312408.351228505385	0
2	36684	1312601.669489337657	0
2	36687	1312672.891310258577	0
2	36689	1312673.321137413731	0
2	36692	1312742.751080258603	0
2	36694	1312854.73012120173	0
2	36700	1313238.840483554445	0
2	36702	1313381.953052158793	0
2	36704	1313390.997096372307	0
2	36709	1313550.239567462243	0
2	36711	1313609.612194649805	0
2	36713	1313662.265055204491	0
2	36715	1313682.082578317744	0
2	36718	1313764.802695342339	0
2	36723	1314002.273929528528	0
2	36726	1314101.007027943722	0
2	36728	1314109.107379400068	0
2	36733	1314307.467624828715	0
2	36735	1314467.55550391448	0
2	36738	1314511.693365696747	0
2	36741	1314618.899489547834	0
2	36743	1314619.681879155824	0
2	36745	1314866.838122960196	0
2	36748	1315037.290089602947	0
2	36751	1315070.120956731709	0
2	36754	1315074.773151413243	0
2	36759	1315261.04249153692	0
2	36761	1315322.701876571188	0
2	36763	1315334.936859766323	0
2	36766	1315406.599910735958	0
2	36770	1315455.228161917972	0
2	36773	1315508.499272770853	0
2	36778	1315846.185226808829	0
2	36780	1315893.238776835223	0
2	36782	1315894.56402857973	0
2	36784	1315911.601885414642	0
2	36786	1315915.578536719662	0
2	36791	1316094.192716450194	0
2	36794	1316145.257262258231	0
2	36796	1316160.742963264679	0
2	36801	1316327.18953121724	0
2	36804	1316537.446390133921	0
2	36806	1316587.31417339759	0
2	36810	1316702.663290654459	0
2	36812	1316784.551979492835	0
2	36816	1316904.355575699186	0
2	36818	1316974.879292672936	0
2	36820	1317066.855733777947	0
2	36824	1317170.504097380636	0
2	36826	1317176.436049843496	0
2	36829	1317216.863535840694	0
2	36835	1317604.437140156883	0
2	36837	1317648.152662118572	0
2	36841	1317836.755984913083	0
2	36843	1317909.329058378296	0
2	36846	1317956.159409447251	0
2	36848	1318064.865859791824	0
2	36851	1318163.409739332044	0
2	36855	1318280.427468522505	0
2	36858	1318397.153407120376	0
2	36861	1318562.563419620188	0
2	36865	1318817.660523990225	0
2	36867	1318915.03052948305	0
2	36869	1319121.471986891854	0
2	36873	1319238.409363192467	0
2	36877	1319315.257557563617	0
2	36879	1319393.368944966899	0
2	36881	1319464.188618196785	0
2	36884	1319579.94725865099	0
2	36888	1319810.141800071323	0
2	36892	1320029.392081460474	0
2	36895	1320134.764572170444	0
2	36897	1320149.530179142055	0
2	36900	1320202.701923173959	0
2	36904	1320425.292091843845	0
2	36907	1320589.405728676919	0
2	36910	1320867.529624774638	0
2	36912	1320877.376631812552	0
2	36916	1321106.626125140537	0
2	36919	1321356.187949620686	0
2	36922	1321535.977021323589	0
2	36924	1321662.927992132174	0
2	36927	1321817.773171084836	0
2	36930	1321943.239364650946	0
2	36932	1321956.773571994371	0
2	36934	1322006.085767779271	0
2	36937	1322057.36331075532	0
2	36939	1322084.860585704803	0
2	36944	1322210.227832572358	0
2	36946	1322230.503253332622	0
2	36950	1322426.536746252004	0
2	36952	1322432.901654168345	0
2	36957	1322595.420916102786	0
2	36959	1322616.291072561962	0
2	36963	1322849.096172954717	0
2	36965	1322911.174765932962	0
2	36968	1322995.76634615008	0
2	36970	1323047.405245610322	0
2	36972	1323059.718256737256	0
2	36977	1323078.681249686436	17.212172777476
2	36981	1323126.096046667476	48.943821375381
2	36984	1323133.26194619842	39.686457197778
2	36987	1323248.192503329602	0
2	36993	1323500.576128308288	0
2	36997	1323679.836661783463	0
2	37000	1324380.378166035772	0
2	37002	1324419.967119090879	0
2	37004	1324433.270806119414	0
2	37009	1324753.153839971383	0
2	37012	1324821.268487685335	0
2	37015	1324974.084565420599	0
2	37017	1324993.085924607773	0
2	37019	1325033.879618560944	0
2	37022	1325128.173750603982	0
2	37025	1325140.15511932097	0
2	37027	1325206.032891484431	0
2	37030	1325266.907257451562	0

