version 2
run General-0-20180111-15:44:03-320
attr configname General
attr datetime 20180111-15:44:03
attr experiment General
attr inifile carrefour.ini
attr iterationvars ""
attr iterationvarsf ""
attr measurement ""
attr network Carrefour
attr processid 320
attr repetition 0
attr replication #0
attr resultdir results
attr runnumber 0
attr seedset 0
param **.lambda 101
param **.numeroCasse 2
param **.mu 180
param **.tipoSimulazione 0
param **.delay 0
param **.ServiceType 0

vector 0 Carrefour.coda 1_Lambda:vector ETV
attr source Interarrivals
attr title "1/lambda, vector"
vector 1 Carrefour.coda E_Nq:vector ETV
attr source QueueLenght
attr title "E[Nq], vector"
vector 2 Carrefour.coda E_W:vector ETV
attr source Queuing
attr title "E[W], vector"
vector 3 Carrefour.decisore E_R:vector ETV
attr source TotalTime
attr title "E[R], vector"
vector 4 Carrefour.decisore ActiveTillStat:vector ETV
attr source ActiveTill
attr title "Active Till, vector"
0	1	7	7
0	4	191.578029326551	184.57802932655
0	6	331.562211757818	139.98418243127
0	10	531.704924690938	200.14271293312
0	13	551.588091961953	19.883167271015
0	15	566.664355698581	15.076263736628
0	17	589.217054635786	22.552698937205
0	21	671.050346319757	81.833291683971
0	27	1013.977751075167	342.92740475541
0	29	1020.848606139947	6.87085506478
0	31	1085.163623433843	64.315017293896
0	32	1164.178405645992	79.014782212149
0	33	1184.512608910012	20.33420326402
1	1	7	0
1	4	191.578029326551	0
1	6	331.562211757818	0
1	10	531.704924690938	0
1	13	551.588091961953	0
1	15	566.664355698581	0
1	19	624.208600809284	0
1	23	768.721021789752	0
1	27	1013.977751075167	0
1	29	1020.848606139947	0
1	35	1247.638530432176	2
1	38	1261.167531945763	1
2	1	7	0
2	4	191.578029326551	0
2	6	331.562211757818	0
2	10	531.704924690938	0
2	13	551.588091961953	0
2	15	566.664355698581	0
2	19	624.208600809284	34.991546173498
2	23	768.721021789752	97.670675469995
2	27	1013.977751075167	0
2	29	1020.848606139947	0
2	35	1247.638530432176	162.47490699833
2	38	1261.167531945763	96.989126299771
3	3	14.671848286923	7.671848286923
3	8	355.124513739889	23.562301982071
3	9	525.978872757396	334.40084343084
3	12	532.323414941791	0.618490250853
3	18	624.208600809284	72.620508847331
3	22	768.721021789752	202.05666609117
3	25	788.762545670383	199.5454910346
3	26	793.644418393972	122.59407207421
3	34	1247.638530432176	226.78992429223
3	37	1261.167531945763	247.1897808706
4	3	14.671848286923	0
4	8	355.124513739889	1
4	9	525.978872757396	0
4	12	532.323414941791	0
4	18	624.208600809284	0
4	22	768.721021789752	1
4	25	788.762545670383	0
4	26	793.644418393972	1
4	34	1247.638530432176	1
4	37	1261.167531945763	0

